
This summary information was generated by ElastoDyn (v1.01.07a-bjj, 30-Sep-2014) on 06-Oct-2014 at 17:56:10.


Turbine features:

            Upwind, three-bladed rotor with rigid hub.
            The model has 22 of 24 DOFs active (enabled) at start-up.
 Enabled    Platform horizontal surge translation DOF 
 Enabled    Platform horizontal sway translation DOF 
 Enabled    Platform vertical heave translation DOF 
 Enabled    Platform roll tilt rotation DOF 
 Enabled    Platform pitch tilt rotation DOF 
 Enabled    Platform yaw rotation DOF 
 Enabled    1st tower fore-aft bending mode DOF 
 Enabled    1st tower side-to-side bending mode DOF 
 Enabled    2nd tower fore-aft bending mode DOF 
 Enabled    2nd tower side-to-side bending mode DOF 
 Enabled    Nacelle yaw DOF 
 Disabled   Rotor-furl DOF 
 Enabled    Variable speed generator DOF 
 Enabled    Drivetrain rotational-flexibility DOF 
 Disabled   Tail-furl DOF 
 Enabled    1st flapwise bending-mode DOF of blade 1 
 Enabled    1st edgewise bending-mode DOF of blade 1 
 Enabled    2nd flapwise bending-mode DOF of blade 1 
 Enabled    1st flapwise bending-mode DOF of blade 2 
 Enabled    1st edgewise bending-mode DOF of blade 2 
 Enabled    2nd flapwise bending-mode DOF of blade 2 
 Enabled    1st flapwise bending-mode DOF of blade 3 
 Enabled    1st edgewise bending-mode DOF of blade 3 
 Enabled    2nd flapwise bending-mode DOF of blade 3 


Time steps:

    Structural            (s)        0.01000000


Some calculated parameters:

    Hub-Height            (m)            90.550
    Flexible Tower Length (m)            68.000
    Flexible Blade Length (m)            61.500


Rotor mass properties:

    Rotor Mass            (kg)       110000.234
    Rotor Inertia         (kg-m^2) 38759232.000
                                        Blade 1      Blade 2      Blade 3
                                        -------      -------      -------
    Mass                  (kg)        17740.082    17740.082    17740.082
    Second Mass Moment    (kg-m^2) 11776048.000 11776048.000 11776048.000
    First Mass Moment     (kg-m)     363231.375   363231.375   363231.375
    Center of Mass        (m)            20.475       20.475       20.475


Additional mass properties:

    Tower-top Mass        (kg)       350000.250
    Tower Mass            (kg)       216614.250
    Platform Mass         (kg)       666000.000
    Mass Incl. Platform   (kg)      1232614.500


Interpolated tower properties:

Node  TwFract   HNodes  DHNodes  TMassDen    FAStiff    SSStiff
 (-)      (-)      (m)      (m)    (kg/m)     (Nm^2)     (Nm^2)
   1    0.025    1.700    3.400  4900.473  4.442E+11  4.442E+11
   2    0.075    5.100    3.400  4200.272  4.171E+11  4.171E+11
   3    0.125    8.500    3.400  4057.180  3.912E+11  3.912E+11
   4    0.175   11.900    3.400  3915.575  3.665E+11  3.665E+11
   5    0.225   15.300    3.400  3770.476  3.423E+11  3.423E+11
   6    0.275   18.700    3.400  3626.859  3.193E+11  3.193E+11
   7    0.325   22.100    3.400  3477.860  2.973E+11  2.973E+11
   8    0.375   25.500    3.400  3291.028  2.721E+11  2.721E+11
   9    0.425   28.900    3.400  3102.114  2.485E+11  2.485E+11
  10    0.475   32.300    3.400  3123.485  2.262E+11  2.262E+11
  11    0.525   35.700    3.400  2969.644  2.073E+11  2.073E+11
  12    0.575   39.100    3.400  2639.437  1.914E+11  1.914E+11
  13    0.625   42.500    3.400  2517.769  1.764E+11  1.764E+11
  14    0.675   45.900    3.400  2398.659  1.623E+11  1.623E+11
  15    0.725   49.300    3.400  2282.134  1.490E+11  1.490E+11
  16    0.775   52.700    3.400  2173.815  1.365E+11  1.365E+11
  17    0.825   56.100    3.400  2344.182  1.421E+11  1.421E+11
  18    0.875   59.500    3.400  2687.067  1.566E+11  1.566E+11
  19    0.925   62.900    3.400  2971.055  1.687E+11  1.687E+11
  20    0.975   66.300    3.400  3260.985  1.595E+11  1.595E+11


Interpolated blade 1 properties:

Node  BlFract   RNodes  DRNodes PitchAxis  StrcTwst  BMassDen    FlpStff    EdgStff
 (-)      (-)      (m)      (m)       (-)     (deg)    (kg/m)     (Nm^2)     (Nm^2)
   1    0.022    2.867    2.733     0.251    13.308   802.720  1.910E+10  1.955E+10
   2    0.067    5.600    2.733     0.278    13.308   634.770  1.123E+10  1.535E+10
   3    0.111    8.333    2.733     0.312    13.308   427.782  5.815E+09  8.460E+09
   4    0.167   11.750    4.100     0.354    13.302   445.160  4.654E+09  7.173E+09
   5    0.233   15.850    4.100     0.375    11.488   368.301  2.542E+09  5.034E+09
   6    0.300   19.950    4.100     0.375    10.162   353.510  2.022E+09  4.469E+09
   7    0.367   24.050    4.100     0.375     9.009   335.102  1.549E+09  3.953E+09
   8    0.433   28.150    4.100     0.375     7.795   306.314  1.051E+09  3.378E+09
   9    0.500   32.250    4.100     0.375     6.549   272.375  6.410E+08  2.685E+09
  10    0.567   36.350    4.100     0.375     5.359   245.485  3.782E+08  2.170E+09
  11    0.633   40.450    4.100     0.375     4.189   201.195  2.151E+08  1.486E+09
  12    0.700   44.550    4.100     0.375     3.144   167.837  1.180E+08  1.114E+09
  13    0.767   48.650    4.100     0.375     2.319   140.582  8.396E+07  7.559E+08
  14    0.833   52.750    4.100     0.375     1.526   107.471  5.498E+07  4.849E+08
  15    0.889   56.167    2.733     0.375     0.863    90.806  3.717E+07  3.758E+08
  16    0.933   58.900    2.733     0.375     0.370    70.842  2.545E+07  2.735E+08
  17    0.978   61.633    2.733     0.375     0.106    48.355  7.887E+06  8.728E+07


Interpolated blade 2 properties:

Node  BlFract   RNodes  DRNodes PitchAxis  StrcTwst  BMassDen    FlpStff    EdgStff
 (-)      (-)      (m)      (m)       (-)     (deg)    (kg/m)     (Nm^2)     (Nm^2)
   1    0.022    2.867    2.733     0.251    13.308   802.720  1.910E+10  1.955E+10
   2    0.067    5.600    2.733     0.278    13.308   634.770  1.123E+10  1.535E+10
   3    0.111    8.333    2.733     0.312    13.308   427.782  5.815E+09  8.460E+09
   4    0.167   11.750    4.100     0.354    13.302   445.160  4.654E+09  7.173E+09
   5    0.233   15.850    4.100     0.375    11.488   368.301  2.542E+09  5.034E+09
   6    0.300   19.950    4.100     0.375    10.162   353.510  2.022E+09  4.469E+09
   7    0.367   24.050    4.100     0.375     9.009   335.102  1.549E+09  3.953E+09
   8    0.433   28.150    4.100     0.375     7.795   306.314  1.051E+09  3.378E+09
   9    0.500   32.250    4.100     0.375     6.549   272.375  6.410E+08  2.685E+09
  10    0.567   36.350    4.100     0.375     5.359   245.485  3.782E+08  2.170E+09
  11    0.633   40.450    4.100     0.375     4.189   201.195  2.151E+08  1.486E+09
  12    0.700   44.550    4.100     0.375     3.144   167.837  1.180E+08  1.114E+09
  13    0.767   48.650    4.100     0.375     2.319   140.582  8.396E+07  7.559E+08
  14    0.833   52.750    4.100     0.375     1.526   107.471  5.498E+07  4.849E+08
  15    0.889   56.167    2.733     0.375     0.863    90.806  3.717E+07  3.758E+08
  16    0.933   58.900    2.733     0.375     0.370    70.842  2.545E+07  2.735E+08
  17    0.978   61.633    2.733     0.375     0.106    48.355  7.887E+06  8.728E+07


Interpolated blade 3 properties:

Node  BlFract   RNodes  DRNodes PitchAxis  StrcTwst  BMassDen    FlpStff    EdgStff
 (-)      (-)      (m)      (m)       (-)     (deg)    (kg/m)     (Nm^2)     (Nm^2)
   1    0.022    2.867    2.733     0.251    13.308   802.720  1.910E+10  1.955E+10
   2    0.067    5.600    2.733     0.278    13.308   634.770  1.123E+10  1.535E+10
   3    0.111    8.333    2.733     0.312    13.308   427.782  5.815E+09  8.460E+09
   4    0.167   11.750    4.100     0.354    13.302   445.160  4.654E+09  7.173E+09
   5    0.233   15.850    4.100     0.375    11.488   368.301  2.542E+09  5.034E+09
   6    0.300   19.950    4.100     0.375    10.162   353.510  2.022E+09  4.469E+09
   7    0.367   24.050    4.100     0.375     9.009   335.102  1.549E+09  3.953E+09
   8    0.433   28.150    4.100     0.375     7.795   306.314  1.051E+09  3.378E+09
   9    0.500   32.250    4.100     0.375     6.549   272.375  6.410E+08  2.685E+09
  10    0.567   36.350    4.100     0.375     5.359   245.485  3.782E+08  2.170E+09
  11    0.633   40.450    4.100     0.375     4.189   201.195  2.151E+08  1.486E+09
  12    0.700   44.550    4.100     0.375     3.144   167.837  1.180E+08  1.114E+09
  13    0.767   48.650    4.100     0.375     2.319   140.582  8.396E+07  7.559E+08
  14    0.833   52.750    4.100     0.375     1.526   107.471  5.498E+07  4.849E+08
  15    0.889   56.167    2.733     0.375     0.863    90.806  3.717E+07  3.758E+08
  16    0.933   58.900    2.733     0.375     0.370    70.842  2.545E+07  2.735E+08
  17    0.978   61.633    2.733     0.375     0.106    48.355  7.887E+06  8.728E+07


Requested Outputs:


  Col  Parameter  Units
  ---  ---------  -----
   0   Time       (s)       
   1   OoPDefl1   (m)       
   2   IPDefl1    (m)       
   3   TwstDefl1  (deg)     
   4   BldPitch1  (deg)     
   5   Azimuth    (deg)     
   6   RotSpeed   (rpm)     
   7   GenSpeed   (rpm)     
   8   TTDspFA    (m)       
   9   TTDspSS    (m)       
  10   TTDspTwst  (deg)     
  11   Spn2MLxb1  (kN·m)    
  12   Spn2MLyb1  (kN·m)    
  13   RootFxc1   (kN)      
  14   RootFyc1   (kN)      
  15   RootFzc1   (kN)      
  16   RootMxc1   (kN·m)    
  17   RootMyc1   (kN·m)    
  18   RootMzc1   (kN·m)    
  19   RotTorq    (kN·m)    
  20   LSSGagMya  (kN·m)    
  21   LSSGagMza  (kN·m)    
  22   YawBrFxp   (kN)      
  23   YawBrFyp   (kN)      
  24   YawBrFzp   (kN)      
  25   YawBrMxp   (kN·m)    
  26   YawBrMyp   (kN·m)    
  27   YawBrMzp   (kN·m)    
  28   TwrBsMxt   (kN·m)    
  29   TwrBsMyt   (kN·m)    
  30   TwrBsMzt   (kN·m)    
  31   PtfmSurge  (m)       
  32   PtfmSway   (m)       
  33   PtfmHeave  (m)       
  34   PtfmRoll   (deg)     
  35   PtfmPitch  (deg)     
  36   PtfmYaw    (deg)     
