
These predictions were generated by FAST (v7.01.00a-bjj, 16-Feb-2012) on 22-Feb-2012 at 09:17:28.
The aerodynamic calculations were made by AeroDyn (v13.00.01a-bjj, 16-Feb-2012).

 FAST certification Test #02: AWT-27CR2 with many DOFs with startup and shutdown and steady wind.

Time	Spn1ALxb1	Spn1ALyb1	Spn1ALzb1	RotSpeed	LSSGagVxa	RootFxb1	RootFyb1	RootFxb2	RootFyb2	RootMIP2	RootMOoP2	Spn1MLxb1	Spn1MLyb1	RotTorq	LSSTipMys	LSSTipMzs	LSSGagMya	LSSGagMza	HSShftTq	GenTq	HSShftPwr	GenPwr
(s)	(m/s^2)	(m/s^2)	(m/s^2)	(rpm)	(rpm)	(kN)	(kN)	(kN)	(kN)	(kN·m)	(kN·m)	(kN·m)	(kN·m)	(kN·m)	(kN·m)	(kN·m)	(kN·m)	(kN·m)	(kN·m)	(kN·m)	(kW)	(kW)
   5.000	 2.714E-02	 6.943E-03	-1.181E-02	 1.793E-01	 1.793E-01	 3.278E+00	-3.185E-01	 2.891E+00	 1.304E-01	-1.025E+00	 1.549E+01	-2.105E-01	 3.925E+00	 3.514E-02	 3.458E+00	-3.309E-01	 7.951E+00	-7.418E-01	 1.562E-03	 0.000E+00	 6.600E-04	 0.000E+00
   5.040	 2.860E-02	 7.767E-03	-6.697E-03	 1.798E-01	 1.798E-01	 3.286E+00	-3.221E-01	 2.901E+00	 1.331E-01	-1.036E+00	 1.555E+01	-2.076E-01	 3.945E+00	 3.772E-02	 3.442E+00	-3.384E-01	 7.935E+00	-7.542E-01	 1.677E-03	 0.000E+00	 7.102E-04	 0.000E+00
   5.080	 2.832E-02	 8.332E-03	-4.514E-03	 1.803E-01	 1.803E-01	 3.294E+00	-3.256E-01	 2.912E+00	 1.360E-01	-1.049E+00	 1.561E+01	-2.046E-01	 3.959E+00	 3.768E-02	 3.426E+00	-3.447E-01	 7.919E+00	-7.654E-01	 1.674E-03	 0.000E+00	 7.112E-04	 0.000E+00
   5.120	 2.734E-02	 8.667E-03	-5.420E-03	 1.807E-01	 1.807E-01	 3.301E+00	-3.289E-01	 2.922E+00	 1.390E-01	-1.064E+00	 1.565E+01	-2.013E-01	 3.964E+00	 3.431E-02	 3.410E+00	-3.494E-01	 7.903E+00	-7.750E-01	 1.525E-03	 0.000E+00	 6.494E-04	 0.000E+00
   5.160	 2.512E-02	 8.743E-03	-9.324E-03	 1.811E-01	 1.811E-01	 3.308E+00	-3.321E-01	 2.931E+00	 1.421E-01	-1.080E+00	 1.567E+01	-1.980E-01	 3.963E+00	 2.826E-02	 3.395E+00	-3.527E-01	 7.887E+00	-7.833E-01	 1.256E-03	 0.000E+00	 5.360E-04	 0.000E+00
   5.200	 2.006E-02	 8.460E-03	-1.588E-02	 1.814E-01	 1.814E-01	 3.316E+00	-3.353E-01	 2.941E+00	 1.453E-01	-1.097E+00	 1.570E+01	-1.946E-01	 3.960E+00	 2.098E-02	 3.380E+00	-3.554E-01	 7.871E+00	-7.909E-01	 9.326E-04	 0.000E+00	 3.987E-04	 0.000E+00
   5.240	 1.018E-02	 7.694E-03	-2.456E-02	 1.816E-01	 1.817E-01	 3.327E+00	-3.386E-01	 2.954E+00	 1.484E-01	-1.114E+00	 1.574E+01	-1.915E-01	 3.961E+00	 1.442E-02	 3.366E+00	-3.585E-01	 7.857E+00	-7.990E-01	 6.409E-04	 0.000E+00	 2.743E-04	 0.000E+00
   5.280	-5.778E-03	 6.408E-03	-3.469E-02	 1.818E-01	 1.818E-01	 3.340E+00	-3.421E-01	 2.969E+00	 1.514E-01	-1.129E+00	 1.580E+01	-1.888E-01	 3.971E+00	 1.021E-02	 3.352E+00	-3.628E-01	 7.844E+00	-8.084E-01	 4.536E-04	 0.000E+00	 1.943E-04	 0.000E+00
   5.320	-2.763E-02	 4.674E-03	-4.558E-02	 1.819E-01	 1.819E-01	 3.357E+00	-3.459E-01	 2.988E+00	 1.542E-01	-1.144E+00	 1.589E+01	-1.866E-01	 3.992E+00	 9.055E-03	 3.340E+00	-3.688E-01	 7.833E+00	-8.196E-01	 4.024E-04	 0.000E+00	 1.725E-04	 0.000E+00
   5.360	-5.362E-02	 2.625E-03	-5.651E-02	 1.821E-01	 1.821E-01	 3.376E+00	-3.498E-01	 3.009E+00	 1.569E-01	-1.157E+00	 1.600E+01	-1.850E-01	 4.022E+00	 1.053E-02	 3.330E+00	-3.762E-01	 7.823E+00	-8.322E-01	 4.678E-04	 0.000E+00	 2.007E-04	 0.000E+00
   5.400	-8.057E-02	 5.498E-04	-6.685E-02	 1.822E-01	 1.822E-01	 3.396E+00	-3.538E-01	 3.031E+00	 1.595E-01	-1.169E+00	 1.612E+01	-1.835E-01	 4.057E+00	 1.333E-02	 3.320E+00	-3.843E-01	 7.814E+00	-8.456E-01	 5.925E-04	 0.000E+00	 2.544E-04	 0.000E+00
   5.440	-1.050E-01	-1.237E-03	-7.604E-02	 1.824E-01	 1.824E-01	 3.415E+00	-3.578E-01	 3.052E+00	 1.621E-01	-1.181E+00	 1.624E+01	-1.819E-01	 4.091E+00	 1.577E-02	 3.310E+00	-3.923E-01	 7.806E+00	-8.588E-01	 7.008E-04	 0.000E+00	 3.012E-04	 0.000E+00
   5.480	-1.237E-01	-2.483E-03	-8.359E-02	 1.826E-01	 1.826E-01	 3.432E+00	-3.617E-01	 3.070E+00	 1.648E-01	-1.195E+00	 1.633E+01	-1.799E-01	 4.116E+00	 1.633E-02	 3.302E+00	-3.992E-01	 7.798E+00	-8.710E-01	 7.257E-04	 0.000E+00	 3.122E-04	 0.000E+00
   5.520	-1.347E-01	-3.053E-03	-8.909E-02	 1.828E-01	 1.828E-01	 3.444E+00	-3.653E-01	 3.084E+00	 1.677E-01	-1.209E+00	 1.640E+01	-1.774E-01	 4.132E+00	 1.421E-02	 3.293E+00	-4.046E-01	 7.790E+00	-8.817E-01	 6.316E-04	 0.000E+00	 2.720E-04	 0.000E+00
   5.560	-1.377E-01	-2.880E-03	-9.221E-02	 1.829E-01	 1.830E-01	 3.453E+00	-3.688E-01	 3.094E+00	 1.708E-01	-1.225E+00	 1.643E+01	-1.743E-01	 4.137E+00	 9.574E-03	 3.285E+00	-4.086E-01	 7.781E+00	-8.910E-01	 4.255E-04	 0.000E+00	 1.834E-04	 0.000E+00
   5.600	-1.338E-01	-2.048E-03	-9.274E-02	 1.830E-01	 1.830E-01	 3.458E+00	-3.721E-01	 3.101E+00	 1.740E-01	-1.241E+00	 1.645E+01	-1.707E-01	 4.134E+00	 3.399E-03	 3.277E+00	-4.116E-01	 7.772E+00	-8.993E-01	 1.511E-04	 0.000E+00	 6.516E-05	 0.000E+00
   5.640	-1.251E-01	-7.381E-04	-9.057E-02	 1.830E-01	 1.830E-01	 3.460E+00	-3.753E-01	 3.105E+00	 1.772E-01	-1.257E+00	 1.645E+01	-1.668E-01	 4.129E+00	-2.969E-03	 3.268E+00	-4.146E-01	 7.763E+00	-9.074E-01	-1.320E-04	 0.000E+00	-5.692E-05	 0.000E+00
   5.680	-1.137E-01	 9.063E-04	-8.577E-02	 1.829E-01	 1.830E-01	 3.462E+00	-3.785E-01	 3.108E+00	 1.804E-01	-1.273E+00	 1.645E+01	-1.628E-01	 4.125E+00	-8.297E-03	 3.260E+00	-4.181E-01	 7.753E+00	-9.161E-01	-3.687E-04	 0.000E+00	-1.590E-04	 0.000E+00
   5.720	-1.011E-01	 2.761E-03	-7.857E-02	 1.828E-01	 1.828E-01	 3.464E+00	-3.818E-01	 3.111E+00	 1.835E-01	-1.288E+00	 1.646E+01	-1.588E-01	 4.125E+00	-1.184E-02	 3.250E+00	-4.226E-01	 7.743E+00	-9.258E-01	-5.263E-04	 0.000E+00	-2.267E-04	 0.000E+00
   5.760	-8.813E-02	 4.731E-03	-6.941E-02	 1.827E-01	 1.827E-01	 3.465E+00	-3.852E-01	 3.115E+00	 1.865E-01	-1.302E+00	 1.648E+01	-1.549E-01	 4.129E+00	-1.359E-02	 3.241E+00	-4.282E-01	 7.732E+00	-9.364E-01	-6.039E-04	 0.000E+00	-2.599E-04	 0.000E+00
   5.800	-7.468E-02	 6.782E-03	-5.885E-02	 1.825E-01	 1.825E-01	 3.467E+00	-3.886E-01	 3.118E+00	 1.894E-01	-1.315E+00	 1.650E+01	-1.511E-01	 4.136E+00	-1.425E-02	 3.230E+00	-4.345E-01	 7.721E+00	-9.476E-01	-6.333E-04	 0.000E+00	-2.723E-04	 0.000E+00
   5.840	-6.020E-02	 8.901E-03	-4.758E-02	 1.823E-01	 1.823E-01	 3.468E+00	-3.919E-01	 3.121E+00	 1.923E-01	-1.327E+00	 1.652E+01	-1.473E-01	 4.143E+00	-1.496E-02	 3.219E+00	-4.408E-01	 7.709E+00	-9.588E-01	-6.650E-04	 0.000E+00	-2.857E-04	 0.000E+00
   5.880	-4.426E-02	 1.113E-02	-3.634E-02	 1.821E-01	 1.821E-01	 3.468E+00	-3.952E-01	 3.123E+00	 1.953E-01	-1.341E+00	 1.653E+01	-1.433E-01	 4.145E+00	-1.677E-02	 3.207E+00	-4.465E-01	 7.696E+00	-9.693E-01	-7.455E-04	 0.000E+00	-3.199E-04	 0.000E+00
   5.920	-2.708E-02	 1.339E-02	-2.583E-02	 1.819E-01	 1.819E-01	 3.466E+00	-3.984E-01	 3.123E+00	 1.984E-01	-1.355E+00	 1.653E+01	-1.390E-01	 4.143E+00	-2.027E-02	 3.195E+00	-4.513E-01	 7.682E+00	-9.788E-01	-9.009E-04	 0.000E+00	-3.861E-04	 0.000E+00
   5.960	-9.573E-03	 1.559E-02	-1.668E-02	 1.816E-01	 1.816E-01	 3.464E+00	-4.015E-01	 3.123E+00	 2.016E-01	-1.370E+00	 1.652E+01	-1.346E-01	 4.135E+00	-2.544E-02	 3.182E+00	-4.551E-01	 7.667E+00	-9.873E-01	-1.131E-03	 0.000E+00	-4.838E-04	 0.000E+00
   6.000	 6.532E-03	 1.757E-02	-9.382E-03	 1.812E-01	 1.812E-01	 3.463E+00	-4.045E-01	 3.124E+00	 2.048E-01	-1.386E+00	 1.651E+01	-1.302E-01	 4.126E+00	-3.159E-02	 3.168E+00	-4.584E-01	 7.652E+00	-9.951E-01	-1.404E-03	 0.000E+00	-5.995E-04	 0.000E+00
   6.040	-2.675E-01	-2.336E+01	-5.382E-02	 1.706E+00	 2.329E+00	 4.803E+00	 8.851E+00	 4.461E+00	 1.111E+01	-8.034E+01	 2.470E+01	-2.264E+01	 3.788E+00	-1.467E+02	-3.556E+00	 8.578E+01	 7.741E+00	 8.489E+01	-6.518E+00	-1.129E+01	-3.577E+01	-3.046E+03
   6.080	 5.754E+00	-2.893E+01	-5.451E-01	 3.193E+00	 3.279E+00	 3.551E+00	 1.122E+01	 3.278E+00	 1.365E+01	-9.868E+01	 1.866E+01	-2.693E+01	 3.254E+00	-1.798E+02	-6.145E+00	 1.062E+02	 7.566E+00	 1.055E+02	-7.992E+00	-1.140E+01	-6.174E+01	-3.046E+03
   6.120	 4.228E+00	-2.210E+01	-1.238E+00	 4.942E+00	 4.704E+00	 3.101E+00	 7.966E+00	 2.889E+00	 9.418E+00	-6.111E+01	 1.327E+01	-1.574E+01	 1.554E+00	-1.154E+02	-4.102E+00	 6.879E+01	 7.490E+00	 6.820E+01	-5.129E+00	-1.157E+01	-5.685E+01	-3.045E+03
   6.160	 3.026E-01	-2.080E+01	-2.130E+00	 6.649E+00	 6.663E+00	 3.508E+00	 7.339E+00	 3.244E+00	 9.574E+00	-6.281E+01	 1.366E+01	-1.602E+01	-2.268E-01	-1.154E+02	-5.979E+00	 6.825E+01	 7.290E+00	 6.734E+01	-5.131E+00	-1.181E+01	-8.056E+01	-3.043E+03
   6.200	 5.505E+00	-2.345E+01	-3.336E+00	 8.310E+00	 8.417E+00	 2.662E+00	 8.519E+00	 2.377E+00	 1.195E+01	-8.229E+01	 9.755E+00	-1.906E+01	-5.661E-01	-1.435E+02	-1.112E+01	 8.409E+01	 6.736E+00	 8.346E+01	-6.377E+00	-1.203E+01	-1.265E+02	-3.040E+03
   6.240	 5.981E+00	-2.530E+01	-4.694E+00	 1.002E+01	 1.003E+01	 2.687E+00	 9.105E+00	 2.538E+00	 1.189E+01	-8.128E+01	 1.090E+01	-1.993E+01	-1.848E-01	-1.455E+02	-1.534E+01	 8.583E+01	 6.291E+00	 8.607E+01	-6.465E+00	-1.223E+01	-1.527E+02	-3.036E+03
   6.280	 2.942E+00	-2.525E+01	-6.534E+00	 1.179E+01	 1.176E+01	 3.374E+00	 8.741E+00	 3.397E+00	 1.133E+01	-7.512E+01	 1.604E+01	-1.965E+01	 6.469E-01	-1.377E+02	-1.903E+01	 8.065E+01	 5.604E+00	 8.155E+01	-6.121E+00	-1.246E+01	-1.696E+02	-3.029E+03
   6.320	 4.516E+00	-2.399E+01	-8.781E+00	 1.360E+01	 1.361E+01	 3.273E+00	 7.981E+00	 3.409E+00	 1.227E+01	-8.154E+01	 1.803E+01	-1.807E+01	 2.030E+00	-1.398E+02	-2.417E+01	 7.857E+01	 4.469E+00	 8.032E+01	-6.213E+00	-1.269E+01	-1.993E+02	-3.021E+03
   6.360	 5.016E+00	-2.502E+01	-1.102E+01	 1.541E+01	 1.545E+01	 3.398E+00	 8.148E+00	 3.708E+00	 1.319E+01	-8.849E+01	 2.124E+01	-1.846E+01	 3.123E+00	-1.481E+02	-3.158E+01	 8.032E+01	 3.257E+00	 8.423E+01	-6.582E+00	-1.293E+01	-2.396E+02	-3.009E+03
   6.400	 4.403E+00	-2.767E+01	-1.375E+01	 1.724E+01	 1.726E+01	 3.667E+00	 8.949E+00	 4.258E+00	 1.317E+01	-8.703E+01	 2.477E+01	-2.096E+01	 3.434E+00	-1.531E+02	-4.005E+01	 8.059E+01	 1.682E+00	 8.793E+01	-6.806E+00	-1.315E+01	-2.768E+02	-2.995E+03
   6.440	 6.397E+00	-2.825E+01	-1.734E+01	 1.908E+01	 1.909E+01	 3.233E+00	 8.944E+00	 4.092E+00	 1.354E+01	-8.818E+01	 2.426E+01	-2.143E+01	 3.051E+00	-1.559E+02	-4.812E+01	 7.660E+01	-6.063E-01	 8.796E+01	-6.928E+00	-1.338E+01	-3.117E+02	-2.977E+03
   6.480	 7.825E+00	-2.800E+01	-2.123E+01	 2.091E+01	 2.094E+01	 2.704E+00	 8.548E+00	 3.857E+00	 1.458E+01	-9.518E+01	 2.283E+01	-2.042E+01	 2.010E+00	-1.615E+02	-5.667E+01	 7.119E+01	-3.282E+00	 8.783E+01	-7.180E+00	-1.360E+01	-3.543E+02	-2.955E+03
   6.520	 8.879E+00	-2.985E+01	-2.537E+01	 2.272E+01	 2.276E+01	 2.277E+00	 8.993E+00	 3.853E+00	 1.519E+01	-9.870E+01	 2.203E+01	-2.155E+01	 6.667E-01	-1.697E+02	-6.681E+01	 6.598E+01	-6.210E+00	 9.032E+01	-7.540E+00	-1.380E+01	-4.044E+02	-2.928E+03
   6.560	 1.161E+01	-3.224E+01	-3.035E+01	 2.449E+01	 2.453E+01	 1.599E+00	 9.728E+00	 3.661E+00	 1.549E+01	-9.953E+01	 2.067E+01	-2.367E+01	-4.720E-01	-1.778E+02	-7.700E+01	 5.850E+01	-9.658E+00	 9.264E+01	-7.900E+00	-1.397E+01	-4.565E+02	-2.896E+03
   6.600	 1.366E+01	-3.309E+01	-3.613E+01	 2.620E+01	 2.624E+01	 1.034E+00	 9.769E+00	 3.540E+00	 1.628E+01	-1.043E+02	 2.066E+01	-2.384E+01	-1.192E+00	-1.852E+02	-8.478E+01	 4.696E+01	-1.359E+01	 9.193E+01	-8.232E+00	-1.412E+01	-5.089E+02	-2.859E+03
   6.640	 1.457E+01	-3.390E+01	-4.233E+01	 2.786E+01	 2.790E+01	 7.920E-01	 9.711E+00	 3.770E+00	 1.709E+01	-1.096E+02	 2.315E+01	-2.355E+01	-1.356E+00	-1.925E+02	-9.019E+01	 3.274E+01	-1.780E+01	 8.981E+01	-8.554E+00	-1.424E+01	-5.623E+02	-2.816E+03
   6.680	 1.660E+01	-3.598E+01	-4.909E+01	 2.945E+01	 2.949E+01	 5.532E-01	 1.027E+01	 4.164E+00	 1.738E+01	-1.109E+02	 2.669E+01	-2.507E+01	-8.531E-01	-2.004E+02	-9.400E+01	 1.728E+01	-2.224E+01	 8.833E+01	-8.908E+00	-1.432E+01	-6.190E+02	-2.767E+03
   6.720	 1.911E+01	-3.789E+01	-5.672E+01	 3.096E+01	 3.100E+01	 2.638E-01	 1.084E+01	 4.561E+00	 1.754E+01	-1.113E+02	 3.039E+01	-2.672E+01	-8.344E-02	-2.081E+02	-9.411E+01	 2.890E-01	-2.690E+01	 8.550E+01	-9.247E+00	-1.436E+01	-6.754E+02	-2.714E+03
   6.760	 2.123E+01	-3.870E+01	-6.509E+01	 3.240E+01	 3.243E+01	-3.939E-02	 1.100E+01	 4.961E+00	 1.773E+01	-1.124E+02	 3.354E+01	-2.714E+01	 4.087E-01	-2.133E+02	-8.849E+01	-1.742E+01	-3.158E+01	 7.972E+01	-9.480E+00	-1.435E+01	-7.243E+02	-2.655E+03
   6.800	 2.374E+01	-3.939E+01	-7.391E+01	 3.378E+01	 3.379E+01	-5.157E-01	 1.122E+01	 5.193E+00	 1.759E+01	-1.112E+02	 3.476E+01	-2.766E+01	 2.601E-01	-2.165E+02	-7.816E+01	-3.381E+01	-3.604E+01	 7.252E+01	-9.622E+00	-1.430E+01	-7.662E+02	-2.590E+03
   6.840	 2.704E+01	-4.010E+01	-8.318E+01	 3.510E+01	 3.511E+01	-1.254E+00	 1.162E+01	 5.137E+00	 1.710E+01	-1.076E+02	 3.337E+01	-2.868E+01	-6.786E-01	-2.184E+02	-6.413E+01	-4.743E+01	-4.010E+01	 6.468E+01	-9.707E+00	-1.420E+01	-8.030E+02	-2.519E+03
   6.880	 3.017E+01	-3.986E+01	-9.296E+01	 3.638E+01	 3.637E+01	-2.158E+00	 1.172E+01	 4.815E+00	 1.654E+01	-1.038E+02	 2.984E+01	-2.878E+01	-2.237E+00	-2.175E+02	-4.611E+01	-5.692E+01	-4.369E+01	 5.509E+01	-9.667E+00	-1.404E+01	-8.285E+02	-2.442E+03
   6.920	 3.307E+01	-3.854E+01	-1.030E+02	 3.765E+01	 3.763E+01	-3.076E+00	 1.146E+01	 4.339E+00	 1.588E+01	-9.975E+01	 2.512E+01	-2.776E+01	-4.019E+00	-2.126E+02	-2.550E+01	-6.094E+01	-4.658E+01	 4.397E+01	-9.448E+00	-1.383E+01	-8.376E+02	-2.356E+03
   6.960	 3.550E+01	-3.683E+01	-1.130E+02	 3.893E+01	 3.889E+01	-3.852E+00	 1.114E+01	 3.880E+00	 1.494E+01	-9.374E+01	 2.058E+01	-2.665E+01	-5.442E+00	-2.044E+02	-5.121E+00	-5.924E+01	-4.855E+01	 3.287E+01	-9.083E+00	-1.353E+01	-8.323E+02	-2.258E+03
   7.000	 3.737E+01	-3.487E+01	-1.231E+02	 4.023E+01	 4.018E+01	-4.358E+00	 1.078E+01	 3.555E+00	 1.373E+01	-8.619E+01	 1.734E+01	-2.542E+01	-6.034E+00	-1.932E+02	 1.294E+01	-5.229E+01	-4.953E+01	 2.248E+01	-8.588E+00	-1.314E+01	-8.130E+02	-2.145E+03
   7.040	 3.835E+01	-3.257E+01	-1.332E+02	 4.158E+01	 4.151E+01	-4.486E+00	 1.019E+01	 3.406E+00	 1.238E+01	-7.795E+01	 1.591E+01	-2.323E+01	-5.650E+00	-1.780E+02	 2.724E+01	-4.095E+01	-4.945E+01	 1.293E+01	-7.911E+00	-1.263E+01	-7.737E+02	-2.014E+03
   7.080	 3.838E+01	-2.946E+01	-1.432E+02	 4.297E+01	 4.288E+01	-4.207E+00	 9.375E+00	 3.435E+00	 1.081E+01	-6.861E+01	 1.627E+01	-2.060E+01	-4.440E+00	-1.589E+02	 3.629E+01	-2.716E+01	-4.823E+01	 5.036E+00	-7.063E+00	-1.196E+01	-7.137E+02	-1.861E+03
   7.120	 3.783E+01	-2.643E+01	-1.528E+02	 4.439E+01	 4.429E+01	-3.625E+00	 8.810E+00	 3.593E+00	 8.857E+00	-5.681E+01	 1.791E+01	-1.907E+01	-2.627E+00	-1.392E+02	 3.939E+01	-1.377E+01	-4.584E+01	 1.231E-01	-6.188E+00	-1.110E+01	-6.458E+02	-1.684E+03
   7.160	 3.700E+01	-2.331E+01	-1.620E+02	 4.578E+01	 4.568E+01	-2.845E+00	 8.411E+00	 3.750E+00	 6.658E+00	-4.362E+01	 2.009E+01	-1.817E+01	-4.535E-01	-1.193E+02	 3.750E+01	-2.567E+00	-4.229E+01	-2.052E+00	-5.302E+00	-1.007E+01	-5.707E+02	-1.489E+03
   7.200	 3.565E+01	-2.004E+01	-1.704E+02	 4.710E+01	 4.701E+01	-1.890E+00	 8.047E+00	 3.928E+00	 4.413E+00	-3.059E+01	 2.264E+01	-1.718E+01	 1.965E+00	-9.952E+01	 3.207E+01	 5.340E+00	-3.761E+01	-2.055E+00	-4.423E+00	-8.883E+00	-4.899E+02	-1.281E+03
   7.240	 3.378E+01	-1.712E+01	-1.778E+02	 4.832E+01	 4.823E+01	-7.570E-01	 7.644E+00	 4.084E+00	 2.286E+00	-1.828E+01	 2.559E+01	-1.550E+01	 4.546E+00	-7.960E+01	 2.481E+01	 9.372E+00	-3.189E+01	-4.363E-01	-3.538E+00	-7.599E+00	-4.020E+02	-1.071E+03
   7.280	 3.127E+01	-1.437E+01	-1.844E+02	 4.942E+01	 4.933E+01	 5.433E-01	 7.076E+00	 4.218E+00	 4.193E-01	-7.606E+00	 2.912E+01	-1.311E+01	 7.220E+00	-5.988E+01	 1.742E+01	 9.709E+00	-2.536E+01	 2.144E+00	-2.661E+00	-6.274E+00	-3.093E+02	-8.656E+02
   7.320	 2.861E+01	-1.169E+01	-1.899E+02	 5.037E+01	 5.029E+01	 1.929E+00	 6.536E+00	 4.411E+00	-1.218E+00	 1.775E+00	 3.334E+01	-1.123E+01	 1.003E+01	-4.264E+01	 1.137E+01	 7.002E+00	-1.830E+01	 5.284E+00	-1.895E+00	-4.978E+00	-2.245E+02	-6.747E+02
   7.360	 2.564E+01	-9.466E+00	-1.944E+02	 5.115E+01	 5.109E+01	 3.388E+00	 6.207E+00	 4.685E+00	-2.626E+00	 1.016E+01	 3.805E+01	-1.049E+01	 1.272E+01	-2.948E+01	 7.477E+00	 2.372E+00	-1.096E+01	 8.472E+00	-1.310E+00	-3.800E+00	-1.577E+02	-5.080E+02
   7.400	 2.234E+01	-7.513E+00	-1.985E+02	 5.177E+01	 5.172E+01	 4.816E+00	 5.858E+00	 4.896E+00	-3.591E+00	 1.586E+01	 4.241E+01	-9.981E+00	 1.479E+01	-1.987E+01	 5.751E+00	-2.637E+00	-3.818E+00	 1.077E+01	-8.830E-01	-2.804E+00	-1.076E+02	-3.716E+02
   7.440	 1.954E+01	-5.468E+00	-2.019E+02	 5.224E+01	 5.220E+01	 5.958E+00	 5.282E+00	 4.960E+00	-3.971E+00	 1.785E+01	 4.511E+01	-9.002E+00	 1.612E+01	-1.287E+01	 5.649E+00	-7.029E+00	 2.780E+00	 1.163E+01	-5.721E-01	-2.008E+00	-7.037E+01	-2.653E+02
   7.480	 1.775E+01	-3.533E+00	-2.049E+02	 5.258E+01	 5.256E+01	 6.641E+00	 4.595E+00	 4.814E+00	-3.972E+00	 1.781E+01	 4.519E+01	-7.829E+00	 1.669E+01	-7.652E+00	 7.016E+00	-1.056E+01	 8.722E+00	 1.149E+01	-3.401E-01	-1.397E+00	-4.212E+01	-1.851E+02
   7.520	 1.700E+01	-1.934E+00	-2.076E+02	 5.284E+01	 5.282E+01	 6.785E+00	 3.925E+00	 4.325E+00	-3.769E+00	 1.698E+01	 4.226E+01	-6.748E+00	 1.645E+01	-3.835E+00	 9.650E+00	-1.294E+01	 1.394E+01	 1.080E+01	-1.704E-01	-9.379E-01	-2.121E+01	-1.257E+02
   7.560	 1.663E+01	-6.048E-01	-2.099E+02	 5.302E+01	 5.301E+01	 6.601E+00	 3.205E+00	 3.603E+00	-3.364E+00	 1.507E+01	 3.743E+01	-5.581E+00	 1.533E+01	-1.104E+00	 1.290E+01	-1.388E+01	 1.828E+01	 9.546E+00	-4.906E-02	-6.004E-01	-6.127E+00	-8.251E+01
   7.600	 1.625E+01	 4.220E-01	-2.118E+02	 5.315E+01	 5.314E+01	 6.258E+00	 2.432E+00	 2.776E+00	-2.845E+00	 1.254E+01	 3.202E+01	-4.287E+00	 1.364E+01	 1.198E+00	 1.621E+01	-1.321E+01	 2.159E+01	 7.943E+00	 5.326E-02	-3.535E-01	 6.669E+00	-5.112E+01
   7.640	 1.660E+01	 1.062E+00	-2.131E+02	 5.326E+01	 5.325E+01	 5.746E+00	 1.670E+00	 1.984E+00	-2.397E+00	 1.078E+01	 2.675E+01	-3.104E+00	 1.196E+01	 4.057E+00	 1.909E+01	-1.093E+01	 2.382E+01	 6.371E+00	 1.803E-01	-1.603E-01	 2.262E+01	-2.669E+01
   7.680	 1.788E+01	 1.545E+00	-2.139E+02	 5.336E+01	 5.334E+01	 5.177E+00	 8.278E-01	 1.205E+00	-1.997E+00	 9.468E+00	 2.224E+01	-1.831E+00	 1.059E+01	 7.887E+00	 2.095E+01	-7.651E+00	 2.513E+01	 4.632E+00	 3.505E-01	 1.667E-02	 4.406E+01	-4.415E+00
   7.720	 1.828E+01	 1.853E+00	-2.142E+02	 5.346E+01	 5.344E+01	 4.965E+00	-1.310E-01	 9.993E-01	-1.588E+00	 8.128E+00	 2.086E+01	-5.144E-01	 9.780E+00	 1.228E+01	 2.124E+01	-4.006E+00	 2.528E+01	 2.549E+00	 5.458E-01	 1.971E-01	 6.872E+01	 1.820E+01
   7.760	 1.914E+01	 2.205E+00	-2.140E+02	 5.357E+01	 5.354E+01	 4.907E+00	-1.233E+00	 1.193E+00	-1.117E+00	 6.581E+00	 2.180E+01	 9.965E-01	 9.836E+00	 1.739E+01	 2.011E+01	-8.749E-01	 2.441E+01	 7.762E-03	 7.727E-01	 3.920E-01	 9.749E+01	 4.252E+01
   7.800	 2.101E+01	 2.706E+00	-2.135E+02	 5.368E+01	 5.365E+01	 4.846E+00	-2.431E+00	 1.566E+00	-5.411E-01	 4.425E+00	 2.407E+01	 2.567E+00	 1.066E+01	 2.233E+01	 1.815E+01	 1.160E+00	 2.267E+01	-2.995E+00	 9.926E-01	 6.015E-01	 1.255E+02	 6.853E+01
   7.840	 2.251E+01	 3.146E+00	-2.129E+02	 5.378E+01	 5.376E+01	 4.955E+00	-3.630E+00	 2.171E+00	 1.012E-01	 1.820E+00	 2.796E+01	 4.042E+00	 1.180E+01	 2.658E+01	 1.597E+01	 2.037E+00	 2.018E+01	-6.211E+00	 1.181E+00	 8.093E-01	 1.496E+02	 9.421E+01
   7.880	 2.398E+01	 3.413E+00	-2.122E+02	 5.388E+01	 5.386E+01	 5.122E+00	-4.726E+00	 2.863E+00	 7.112E-01	-6.047E-01	 3.245E+01	 5.298E+00	 1.296E+01	 3.018E+01	 1.400E+01	 1.995E+00	 1.699E+01	-9.280E+00	 1.341E+00	 1.004E+00	 1.702E+02	 1.181E+02
   7.920	 2.595E+01	 3.554E+00	-2.118E+02	 5.396E+01	 5.395E+01	 5.166E+00	-5.644E+00	 3.505E+00	 1.269E+00	-2.912E+00	 3.640E+01	 6.251E+00	 1.401E+01	 3.269E+01	 1.252E+01	 1.349E+00	 1.326E+01	-1.195E+01	 1.453E+00	 1.175E+00	 1.847E+02	 1.390E+02
   7.960	 2.792E+01	 3.559E+00	-2.115E+02	 5.403E+01	 5.402E+01	 5.102E+00	-6.337E+00	 4.080E+00	 1.745E+00	-5.060E+00	 3.951E+01	 6.916E+00	 1.474E+01	 3.402E+01	 1.167E+01	 5.065E-01	 9.234E+00	-1.402E+01	 1.512E+00	 1.308E+00	 1.925E+02	 1.553E+02
   8.000	 2.966E+01	 3.337E+00	-2.115E+02	 5.407E+01	 5.407E+01	 4.933E+00	-6.729E+00	 4.507E+00	 2.028E+00	-6.338E+00	 4.147E+01	 7.198E+00	 1.501E+01	 3.453E+01	 1.125E+01	-1.729E-01	 5.139E+00	-1.520E+01	 1.535E+00	 1.401E+00	 1.955E+02	 1.667E+02
   8.040	 3.126E+01	 2.856E+00	-2.117E+02	 5.410E+01	 5.410E+01	 4.671E+00	-6.797E+00	 4.742E+00	 2.083E+00	-6.488E+00	 4.226E+01	 7.075E+00	 1.477E+01	 3.440E+01	 1.103E+01	-6.098E-01	 1.132E+00	-1.541E+01	 1.529E+00	 1.458E+00	 1.949E+02	 1.735E+02
   8.080	 3.239E+01	 2.259E+00	-2.121E+02	 5.411E+01	 5.411E+01	 4.354E+00	-6.590E+00	 4.856E+00	 1.927E+00	-5.702E+00	 4.233E+01	 6.726E+00	 1.424E+01	 3.393E+01	 1.095E+01	-8.798E-01	-2.685E+00	-1.477E+01	 1.508E+00	 1.483E+00	 1.922E+02	 1.767E+02
   8.120	 3.327E+01	 1.718E+00	-2.127E+02	 5.411E+01	 5.411E+01	 4.044E+00	-6.164E+00	 4.940E+00	 1.559E+00	-3.961E+00	 4.212E+01	 6.243E+00	 1.371E+01	 3.355E+01	 1.095E+01	-9.850E-01	-6.157E+00	-1.340E+01	 1.491E+00	 1.490E+00	 1.901E+02	 1.774E+02
   8.160	 3.399E+01	 1.265E+00	-2.133E+02	 5.411E+01	 5.411E+01	 3.763E+00	-5.529E+00	 5.014E+00	 9.724E-01	-1.139E+00	 4.182E+01	 5.552E+00	 1.334E+01	 3.333E+01	 1.092E+01	-9.283E-01	-9.100E+00	-1.134E+01	 1.481E+00	 1.488E+00	 1.889E+02	 1.772E+02
   8.200	 3.438E+01	 9.204E-01	-2.139E+02	 5.411E+01	 5.411E+01	 3.570E+00	-4.724E+00	 5.088E+00	 1.978E-01	 2.646E+00	 4.167E+01	 4.681E+00	 1.312E+01	 3.330E+01	 1.077E+01	-7.914E-01	-1.140E+01	-8.726E+00	 1.480E+00	 1.485E+00	 1.887E+02	 1.768E+02
   8.240	 3.435E+01	 6.989E-01	-2.145E+02	 5.411E+01	 5.411E+01	 3.499E+00	-3.813E+00	 5.164E+00	-7.266E-01	 7.206E+00	 4.177E+01	 3.710E+00	 1.298E+01	 3.359E+01	 1.056E+01	-6.694E-01	-1.303E+01	-5.699E+00	 1.493E+00	 1.486E+00	 1.903E+02	 1.769E+02
   8.280	 3.405E+01	 6.060E-01	-2.151E+02	 5.412E+01	 5.412E+01	 3.493E+00	-2.823E+00	 5.204E+00	-1.763E+00	 1.237E+01	 4.189E+01	 2.679E+00	 1.290E+01	 3.414E+01	 1.034E+01	-6.503E-01	-1.398E+01	-2.382E+00	 1.517E+00	 1.495E+00	 1.935E+02	 1.780E+02
   8.320	 3.350E+01	 6.082E-01	-2.156E+02	 5.413E+01	 5.413E+01	 3.500E+00	-1.804E+00	 5.202E+00	-2.850E+00	 1.779E+01	 4.185E+01	 1.608E+00	 1.290E+01	 3.479E+01	 1.024E+01	-7.265E-01	-1.430E+01	 1.062E+00	 1.546E+00	 1.511E+00	 1.972E+02	 1.801E+02
   8.360	 3.295E+01	 7.473E-01	-2.161E+02	 5.414E+01	 5.414E+01	 3.525E+00	-8.312E-01	 5.177E+00	-3.909E+00	 2.301E+01	 4.162E+01	 6.047E-01	 1.294E+01	 3.550E+01	 1.029E+01	-7.728E-01	-1.397E+01	 4.409E+00	 1.578E+00	 1.534E+00	 2.013E+02	 1.828E+02
   8.400	 3.262E+01	 1.011E+00	-2.164E+02	 5.415E+01	 5.415E+01	 3.556E+00	 4.337E-02	 5.116E+00	-4.878E+00	 2.775E+01	 4.120E+01	-2.931E-01	 1.299E+01	 3.622E+01	 1.044E+01	-7.087E-01	-1.301E+01	 7.484E+00	 1.610E+00	 1.561E+00	 2.054E+02	 1.861E+02
   8.440	 3.197E+01	 1.346E+00	-2.166E+02	 5.417E+01	 5.416E+01	 3.691E+00	 7.789E-01	 5.060E+00	-5.711E+00	 3.179E+01	 4.102E+01	-1.036E+00	 1.296E+01	 3.689E+01	 1.060E+01	-4.939E-01	-1.147E+01	 1.013E+01	 1.640E+00	 1.590E+00	 2.092E+02	 1.895E+02
   8.480	 3.115E+01	 1.710E+00	-2.168E+02	 5.418E+01	 5.418E+01	 3.900E+00	 1.354E+00	 5.006E+00	-6.383E+00	 3.508E+01	 4.109E+01	-1.638E+00	 1.295E+01	 3.751E+01	 1.076E+01	-1.024E-01	-9.495E+00	 1.226E+01	 1.667E+00	 1.619E+00	 2.128E+02	 1.930E+02
   8.520	 3.038E+01	 2.102E+00	-2.169E+02	 5.420E+01	 5.419E+01	 4.139E+00	 1.744E+00	 4.961E+00	-6.848E+00	 3.733E+01	 4.138E+01	-2.072E+00	 1.307E+01	 3.795E+01	 1.081E+01	 4.900E-01	-7.232E+00	 1.375E+01	 1.687E+00	 1.645E+00	 2.154E+02	 1.962E+02
   8.560	 2.964E+01	 2.521E+00	-2.171E+02	 5.420E+01	 5.420E+01	 4.397E+00	 1.919E+00	 4.950E+00	-7.069E+00	 3.832E+01	 4.185E+01	-2.274E+00	 1.333E+01	 3.815E+01	 1.060E+01	 1.206E+00	-4.780E+00	 1.451E+01	 1.696E+00	 1.666E+00	 2.166E+02	 1.988E+02
   8.600	 2.896E+01	 2.909E+00	-2.173E+02	 5.421E+01	 5.421E+01	 4.645E+00	 1.889E+00	 4.937E+00	-7.055E+00	 3.811E+01	 4.229E+01	-2.240E+00	 1.365E+01	 3.817E+01	 1.010E+01	 1.883E+00	-2.237E+00	 1.455E+01	 1.696E+00	 1.680E+00	 2.167E+02	 2.004E+02
   8.640	 2.835E+01	 3.165E+00	-2.175E+02	 5.421E+01	 5.421E+01	 4.858E+00	 1.699E+00	 4.890E+00	-6.854E+00	 3.701E+01	 4.251E+01	-2.053E+00	 1.391E+01	 3.800E+01	 9.431E+00	 2.421E+00	 2.766E-01	 1.398E+01	 1.689E+00	 1.686E+00	 2.157E+02	 2.011E+02
   8.680	 2.782E+01	 3.261E+00	-2.177E+02	 5.421E+01	 5.421E+01	 5.017E+00	 1.362E+00	 4.787E+00	-6.481E+00	 3.511E+01	 4.241E+01	-1.712E+00	 1.403E+01	 3.769E+01	 8.642E+00	 2.777E+00	 2.640E+00	 1.287E+01	 1.675E+00	 1.684E+00	 2.140E+02	 2.010E+02
   8.720	 2.745E+01	 3.244E+00	-2.179E+02	 5.421E+01	 5.421E+01	 5.105E+00	 8.772E-01	 4.645E+00	-5.943E+00	 3.241E+01	 4.195E+01	-1.178E+00	 1.402E+01	 3.731E+01	 7.773E+00	 2.905E+00	 4.752E+00	 1.124E+01	 1.658E+00	 1.676E+00	 2.118E+02	 2.000E+02
   8.760	 2.727E+01	 3.143E+00	-2.179E+02	 5.420E+01	 5.420E+01	 5.132E+00	 2.573E-01	 4.489E+00	-5.267E+00	 2.906E+01	 4.124E+01	-4.879E-01	 1.392E+01	 3.694E+01	 6.917E+00	 2.771E+00	 6.550E+00	 9.170E+00	 1.642E+00	 1.664E+00	 2.097E+02	 1.986E+02
   8.800	 2.727E+01	 2.998E+00	-2.178E+02	 5.419E+01	 5.420E+01	 5.108E+00	-4.798E-01	 4.337E+00	-4.474E+00	 2.517E+01	 4.042E+01	 3.250E-01	 1.378E+01	 3.658E+01	 6.185E+00	 2.363E+00	 7.989E+00	 6.718E+00	 1.626E+00	 1.650E+00	 2.076E+02	 1.969E+02
   8.840	 2.735E+01	 2.880E+00	-2.176E+02	 5.419E+01	 5.419E+01	 5.065E+00	-1.329E+00	 4.218E+00	-3.586E+00	 2.081E+01	 3.966E+01	 1.272E+00	 1.367E+01	 3.633E+01	 5.678E+00	 1.697E+00	 9.019E+00	 3.936E+00	 1.615E+00	 1.636E+00	 2.062E+02	 1.952E+02
   8.880	 2.749E+01	 2.843E+00	-2.173E+02	 5.418E+01	 5.418E+01	 5.011E+00	-2.268E+00	 4.134E+00	-2.621E+00	 1.612E+01	 3.909E+01	 2.333E+00	 1.361E+01	 3.621E+01	 5.513E+00	 8.513E-01	 9.605E+00	 9.053E-01	 1.609E+00	 1.625E+00	 2.055E+02	 1.938E+02
   8.920	 2.769E+01	 2.904E+00	-2.169E+02	 5.418E+01	 5.418E+01	 4.950E+00	-3.255E+00	 4.083E+00	-1.623E+00	 1.131E+01	 3.870E+01	 3.448E+00	 1.363E+01	 3.621E+01	 5.766E+00	-1.606E-02	 9.722E+00	-2.245E+00	 1.610E+00	 1.617E+00	 2.055E+02	 1.929E+02
   8.960	 2.793E+01	 3.064E+00	-2.166E+02	 5.418E+01	 5.418E+01	 4.880E+00	-4.242E+00	 4.058E+00	-6.419E-01	 6.580E+00	 3.847E+01	 4.565E+00	 1.370E+01	 3.631E+01	 6.438E+00	-7.117E-01	 9.368E+00	-5.366E+00	 1.614E+00	 1.614E+00	 2.060E+02	 1.925E+02
   9.000	 2.821E+01	 3.283E+00	-2.163E+02	 5.418E+01	 5.418E+01	 4.798E+00	-5.165E+00	 4.038E+00	 2.649E-01	 2.212E+00	 3.832E+01	 5.613E+00	 1.379E+01	 3.646E+01	 7.418E+00	-1.027E+00	 8.564E+00	-8.267E+00	 1.620E+00	 1.615E+00	 2.068E+02	 1.926E+02
   9.040	 2.841E+01	 3.460E+00	-2.161E+02	 5.418E+01	 5.418E+01	 4.731E+00	-5.942E+00	 4.059E+00	 1.018E+00	-1.377E+00	 3.835E+01	 6.468E+00	 1.388E+01	 3.662E+01	 8.439E+00	-8.270E-01	 7.323E+00	-1.071E+01	 1.628E+00	 1.618E+00	 2.078E+02	 1.930E+02
   9.080	 2.862E+01	 3.557E+00	-2.160E+02	 5.418E+01	 5.418E+01	 4.669E+00	-6.521E+00	 4.127E+00	 1.562E+00	-3.934E+00	 3.854E+01	 7.091E+00	 1.399E+01	 3.685E+01	 9.239E+00	-1.298E-01	 5.719E+00	-1.252E+01	 1.638E+00	 1.624E+00	 2.091E+02	 1.937E+02
   9.120	 2.894E+01	 3.582E+00	-2.160E+02	 5.419E+01	 5.419E+01	 4.597E+00	-6.872E+00	 4.210E+00	 1.875E+00	-5.413E+00	 3.874E+01	 7.468E+00	 1.413E+01	 3.709E+01	 9.618E+00	 9.291E-01	 3.868E+00	-1.362E+01	 1.649E+00	 1.633E+00	 2.105E+02	 1.947E+02
   9.160	 2.921E+01	 3.482E+00	-2.161E+02	 5.419E+01	 5.419E+01	 4.537E+00	-6.955E+00	 4.307E+00	 1.927E+00	-5.639E+00	 3.902E+01	 7.536E+00	 1.423E+01	 3.728E+01	 9.406E+00	 2.123E+00	 1.890E+00	-1.389E+01	 1.657E+00	 1.641E+00	 2.115E+02	 1.958E+02
   9.200	 2.940E+01	 3.238E+00	-2.161E+02	 5.420E+01	 5.420E+01	 4.507E+00	-6.761E+00	 4.416E+00	 1.703E+00	-4.495E+00	 3.941E+01	 7.264E+00	 1.427E+01	 3.744E+01	 8.575E+00	 3.140E+00	-1.055E-01	-1.330E+01	 1.664E+00	 1.650E+00	 2.125E+02	 1.968E+02
   9.240	 2.958E+01	 2.919E+00	-2.162E+02	 5.420E+01	 5.420E+01	 4.480E+00	-6.314E+00	 4.521E+00	 1.234E+00	-2.157E+00	 3.980E+01	 6.712E+00	 1.426E+01	 3.758E+01	 7.304E+00	 3.701E+00	-2.026E+00	-1.193E+01	 1.670E+00	 1.658E+00	 2.133E+02	 1.978E+02
   9.280	 2.974E+01	 2.594E+00	-2.162E+02	 5.420E+01	 5.420E+01	 4.451E+00	-5.660E+00	 4.623E+00	 5.675E-01	 1.110E+00	 4.017E+01	 5.954E+00	 1.422E+01	 3.769E+01	 5.877E+00	 3.670E+00	-3.773E+00	-9.926E+00	 1.675E+00	 1.665E+00	 2.139E+02	 1.986E+02
   9.320	 2.988E+01	 2.300E+00	-2.162E+02	 5.421E+01	 5.421E+01	 4.423E+00	-4.844E+00	 4.728E+00	-2.595E-01	 5.150E+00	 4.050E+01	 5.031E+00	 1.419E+01	 3.780E+01	 4.575E+00	 3.044E+00	-5.256E+00	-7.413E+00	 1.680E+00	 1.671E+00	 2.145E+02	 1.993E+02
   9.360	 3.003E+01	 2.091E+00	-2.162E+02	 5.421E+01	 5.421E+01	 4.393E+00	-3.922E+00	 4.814E+00	-1.190E+00	 9.675E+00	 4.074E+01	 4.003E+00	 1.413E+01	 3.790E+01	 3.649E+00	 1.956E+00	-6.402E+00	-4.563E+00	 1.684E+00	 1.676E+00	 2.151E+02	 2.000E+02
   9.400	 3.009E+01	 1.979E+00	-2.162E+02	 5.421E+01	 5.421E+01	 4.382E+00	-2.944E+00	 4.881E+00	-2.173E+00	 1.444E+01	 4.095E+01	 2.924E+00	 1.403E+01	 3.796E+01	 3.264E+00	 6.136E-01	-7.172E+00	-1.528E+00	 1.687E+00	 1.681E+00	 2.155E+02	 2.006E+02
   9.440	 3.008E+01	 1.949E+00	-2.162E+02	 5.421E+01	 5.421E+01	 4.388E+00	-1.955E+00	 4.925E+00	-3.166E+00	 1.928E+01	 4.113E+01	 1.830E+00	 1.389E+01	 3.802E+01	 3.493E+00	-7.405E-01	-7.559E+00	 1.552E+00	 1.690E+00	 1.685E+00	 2.158E+02	 2.010E+02
   9.480	 3.005E+01	 2.008E+00	-2.162E+02	 5.422E+01	 5.421E+01	 4.408E+00	-1.008E+00	 4.948E+00	-4.118E+00	 2.392E+01	 4.127E+01	 7.858E-01	 1.374E+01	 3.806E+01	 4.283E+00	-1.834E+00	-7.564E+00	 4.518E+00	 1.692E+00	 1.688E+00	 2.161E+02	 2.014E+02
   9.520	 2.998E+01	 2.144E+00	-2.163E+02	 5.422E+01	 5.422E+01	 4.436E+00	-1.479E-01	 4.955E+00	-4.982E+00	 2.811E+01	 4.138E+01	-1.480E-01	 1.361E+01	 3.809E+01	 5.466E+00	-2.447E+00	-7.197E+00	 7.224E+00	 1.693E+00	 1.690E+00	 2.163E+02	 2.017E+02
   9.560	 2.986E+01	 2.325E+00	-2.164E+02	 5.422E+01	 5.422E+01	 4.465E+00	 5.916E-01	 4.937E+00	-5.723E+00	 3.169E+01	 4.143E+01	-9.424E-01	 1.350E+01	 3.809E+01	 6.799E+00	-2.475E+00	-6.479E+00	 9.560E+00	 1.693E+00	 1.692E+00	 2.163E+02	 2.019E+02
   9.600	 2.981E+01	 2.511E+00	-2.166E+02	 5.422E+01	 5.422E+01	 4.487E+00	 1.184E+00	 4.900E+00	-6.314E+00	 3.455E+01	 4.141E+01	-1.589E+00	 1.343E+01	 3.806E+01	 8.037E+00	-1.915E+00	-5.459E+00	 1.144E+01	 1.691E+00	 1.692E+00	 2.161E+02	 2.019E+02
   9.640	 2.969E+01	 2.692E+00	-2.168E+02	 5.422E+01	 5.422E+01	 4.535E+00	 1.597E+00	 4.869E+00	-6.725E+00	 3.651E+01	 4.147E+01	-2.031E+00	 1.339E+01	 3.800E+01	 8.924E+00	-8.650E-01	-4.184E+00	 1.276E+01	 1.689E+00	 1.692E+00	 2.158E+02	 2.019E+02
   9.680	 2.955E+01	 2.846E+00	-2.170E+02	 5.422E+01	 5.422E+01	 4.595E+00	 1.817E+00	 4.832E+00	-6.942E+00	 3.751E+01	 4.155E+01	-2.253E+00	 1.337E+01	 3.795E+01	 9.296E+00	 4.809E-01	-2.722E+00	 1.349E+01	 1.687E+00	 1.690E+00	 2.155E+02	 2.017E+02
   9.720	 2.944E+01	 2.938E+00	-2.172E+02	 5.421E+01	 5.421E+01	 4.655E+00	 1.847E+00	 4.788E+00	-6.963E+00	 3.757E+01	 4.161E+01	-2.283E+00	 1.338E+01	 3.785E+01	 9.097E+00	 1.889E+00	-1.156E+00	 1.361E+01	 1.682E+00	 1.688E+00	 2.149E+02	 2.014E+02
   9.760	 2.932E+01	 2.971E+00	-2.174E+02	 5.421E+01	 5.421E+01	 4.713E+00	 1.682E+00	 4.744E+00	-6.783E+00	 3.665E+01	 4.166E+01	-2.101E+00	 1.342E+01	 3.771E+01	 8.340E+00	 3.112E+00	 4.395E-01	 1.310E+01	 1.676E+00	 1.684E+00	 2.141E+02	 2.009E+02
   9.800	 2.925E+01	 2.962E+00	-2.175E+02	 5.421E+01	 5.421E+01	 4.755E+00	 1.324E+00	 4.688E+00	-6.404E+00	 3.476E+01	 4.162E+01	-1.696E+00	 1.346E+01	 3.754E+01	 7.141E+00	 3.926E+00	 1.991E+00	 1.199E+01	 1.669E+00	 1.678E+00	 2.131E+02	 2.002E+02
   9.840	 2.922E+01	 2.912E+00	-2.175E+02	 5.421E+01	 5.421E+01	 4.779E+00	 7.895E-01	 4.618E+00	-5.845E+00	 3.199E+01	 4.147E+01	-1.094E+00	 1.349E+01	 3.737E+01	 5.714E+00	 4.179E+00	 3.429E+00	 1.033E+01	 1.661E+00	 1.672E+00	 2.121E+02	 1.995E+02
   9.880	 2.921E+01	 2.848E+00	-2.175E+02	 5.420E+01	 5.420E+01	 4.789E+00	 9.645E-02	 4.544E+00	-5.126E+00	 2.848E+01	 4.125E+01	-3.188E-01	 1.349E+01	 3.721E+01	 4.312E+00	 3.816E+00	 4.684E+00	 8.161E+00	 1.654E+00	 1.665E+00	 2.112E+02	 1.986E+02
   9.920	 2.921E+01	 2.808E+00	-2.174E+02	 5.420E+01	 5.420E+01	 4.783E+00	-7.349E-01	 4.471E+00	-4.274E+00	 2.434E+01	 4.096E+01	 6.112E-01	 1.349E+01	 3.710E+01	 3.185E+00	 2.884E+00	 5.689E+00	 5.573E+00	 1.649E+00	 1.658E+00	 2.106E+02	 1.978E+02
   9.960	 2.925E+01	 2.822E+00	-2.172E+02	 5.420E+01	 5.420E+01	 4.763E+00	-1.674E+00	 4.407E+00	-3.319E+00	 1.970E+01	 4.063E+01	 1.662E+00	 1.351E+01	 3.701E+01	 2.556E+00	 1.528E+00	 6.391E+00	 2.660E+00	 1.645E+00	 1.653E+00	 2.101E+02	 1.972E+02
  10.000	 2.929E+01	 2.906E+00	-2.170E+02	 5.419E+01	 5.419E+01	 4.740E+00	-2.681E+00	 4.367E+00	-2.304E+00	 1.476E+01	 4.034E+01	 2.787E+00	 1.354E+01	 3.697E+01	 2.581E+00	-7.360E-03	 6.756E+00	-4.500E-01	 1.643E+00	 1.648E+00	 2.098E+02	 1.966E+02
  10.040	 2.933E+01	 3.050E+00	-2.169E+02	 5.419E+01	 5.419E+01	 4.712E+00	-3.703E+00	 4.340E+00	-1.281E+00	 9.796E+00	 4.007E+01	 3.933E+00	 1.361E+01	 3.699E+01	 3.289E+00	-1.411E+00	 6.760E+00	-3.593E+00	 1.644E+00	 1.646E+00	 2.099E+02	 1.963E+02
  10.080	 2.934E+01	 3.225E+00	-2.167E+02	 5.419E+01	 5.419E+01	 4.680E+00	-4.677E+00	 4.325E+00	-3.138E-01	 5.120E+00	 3.984E+01	 5.021E+00	 1.370E+01	 3.705E+01	 4.552E+00	-2.375E+00	 6.397E+00	-6.579E+00	 1.647E+00	 1.645E+00	 2.103E+02	 1.962E+02
  10.120	 2.934E+01	 3.395E+00	-2.166E+02	 5.419E+01	 5.419E+01	 4.640E+00	-5.539E+00	 4.317E+00	 5.367E-01	 1.015E+00	 3.962E+01	 5.983E+00	 1.380E+01	 3.714E+01	 6.113E+00	-2.678E+00	 5.682E+00	-9.221E+00	 1.651E+00	 1.646E+00	 2.108E+02	 1.964E+02
  10.160	 2.933E+01	 3.510E+00	-2.166E+02	 5.420E+01	 5.420E+01	 4.599E+00	-6.229E+00	 4.314E+00	 1.212E+00	-2.233E+00	 3.945E+01	 6.751E+00	 1.390E+01	 3.725E+01	 7.620E+00	-2.245E+00	 4.649E+00	-1.134E+01	 1.656E+00	 1.649E+00	 2.114E+02	 1.967E+02
  10.200	 2.928E+01	 3.527E+00	-2.167E+02	 5.420E+01	 5.420E+01	 4.570E+00	-6.698E+00	 4.346E+00	 1.660E+00	-4.359E+00	 3.942E+01	 7.256E+00	 1.401E+01	 3.739E+01	 8.718E+00	-1.175E+00	 3.352E+00	-1.277E+01	 1.662E+00	 1.653E+00	 2.122E+02	 1.972E+02
  10.240	 2.927E+01	 3.452E+00	-2.167E+02	 5.420E+01	 5.420E+01	 4.551E+00	-6.925E+00	 4.402E+00	 1.861E+00	-5.296E+00	 3.949E+01	 7.488E+00	 1.413E+01	 3.756E+01	 9.177E+00	 2.788E-01	 1.878E+00	-1.346E+01	 1.669E+00	 1.659E+00	 2.132E+02	 1.979E+02
  10.280	 2.928E+01	 3.295E+00	-2.167E+02	 5.420E+01	 5.420E+01	 4.540E+00	-6.898E+00	 4.473E+00	 1.809E+00	-5.018E+00	 3.965E+01	 7.433E+00	 1.423E+01	 3.771E+01	 8.893E+00	 1.791E+00	 3.245E-01	-1.337E+01	 1.676E+00	 1.665E+00	 2.141E+02	 1.987E+02
  10.320	 2.927E+01	 3.067E+00	-2.167E+02	 5.421E+01	 5.421E+01	 4.541E+00	-6.620E+00	 4.551E+00	 1.509E+00	-3.531E+00	 3.988E+01	 7.091E+00	 1.431E+01	 3.784E+01	 7.920E+00	 3.017E+00	-1.219E+00	-1.252E+01	 1.682E+00	 1.672E+00	 2.148E+02	 1.995E+02
  10.360	 2.927E+01	 2.810E+00	-2.167E+02	 5.421E+01	 5.421E+01	 4.545E+00	-6.115E+00	 4.631E+00	 9.885E-01	-9.571E-01	 4.014E+01	 6.492E+00	 1.435E+01	 3.796E+01	 6.478E+00	 3.681E+00	-2.672E+00	-1.097E+01	 1.687E+00	 1.678E+00	 2.155E+02	 2.002E+02
  10.400	 2.927E+01	 2.581E+00	-2.166E+02	 5.421E+01	 5.421E+01	 4.550E+00	-5.429E+00	 4.706E+00	 2.924E-01	 2.458E+00	 4.039E+01	 5.701E+00	 1.434E+01	 3.804E+01	 4.893E+00	 3.654E+00	-3.964E+00	-8.882E+00	 1.691E+00	 1.683E+00	 2.160E+02	 2.008E+02
  10.440	 2.928E+01	 2.416E+00	-2.165E+02	 5.421E+01	 5.421E+01	 4.544E+00	-4.610E+00	 4.769E+00	-5.310E-01	 6.471E+00	 4.059E+01	 4.780E+00	 1.431E+01	 3.810E+01	 3.489E+00	 2.967E+00	-5.033E+00	-6.379E+00	 1.693E+00	 1.688E+00	 2.163E+02	 2.014E+02
  10.480	 2.932E+01	 2.338E+00	-2.164E+02	 5.422E+01	 5.422E+01	 4.536E+00	-3.705E+00	 4.819E+00	-1.437E+00	 1.087E+01	 4.073E+01	 3.772E+00	 1.424E+01	 3.812E+01	 2.529E+00	 1.775E+00	-5.827E+00	-3.607E+00	 1.694E+00	 1.691E+00	 2.164E+02	 2.018E+02
  10.520	 2.934E+01	 2.333E+00	-2.163E+02	 5.422E+01	 5.422E+01	 4.535E+00	-2.754E+00	 4.856E+00	-2.386E+00	 1.547E+01	 4.086E+01	 2.714E+00	 1.414E+01	 3.812E+01	 2.176E+00	 3.115E-01	-6.317E+00	-6.914E-01	 1.694E+00	 1.693E+00	 2.164E+02	 2.020E+02
  10.560	 2.934E+01	 2.392E+00	-2.163E+02	 5.422E+01	 5.422E+01	 4.541E+00	-1.801E+00	 4.876E+00	-3.335E+00	 2.008E+01	 4.096E+01	 1.659E+00	 1.401E+01	 3.810E+01	 2.489E+00	-1.143E+00	-6.489E+00	 2.234E+00	 1.693E+00	 1.693E+00	 2.163E+02	 2.021E+02
  10.600	 2.934E+01	 2.498E+00	-2.164E+02	 5.422E+01	 5.422E+01	 4.553E+00	-8.901E-01	 4.880E+00	-4.242E+00	 2.447E+01	 4.104E+01	 6.558E-01	 1.388E+01	 3.806E+01	 3.401E+00	-2.311E+00	-6.341E+00	 5.039E+00	 1.692E+00	 1.693E+00	 2.161E+02	 2.021E+02
  10.640	 2.933E+01	 2.623E+00	-2.165E+02	 5.422E+01	 5.422E+01	 4.571E+00	-5.665E-02	 4.870E+00	-5.069E+00	 2.847E+01	 4.111E+01	-2.584E-01	 1.375E+01	 3.800E+01	 4.734E+00	-2.974E+00	-5.882E+00	 7.604E+00	 1.689E+00	 1.692E+00	 2.158E+02	 2.019E+02
  10.680	 2.931E+01	 2.745E+00	-2.167E+02	 5.422E+01	 5.422E+01	 4.586E+00	 6.630E-01	 4.840E+00	-5.780E+00	 3.190E+01	 4.113E+01	-1.042E+00	 1.363E+01	 3.792E+01	 6.239E+00	-3.005E+00	-5.133E+00	 9.817E+00	 1.686E+00	 1.690E+00	 2.153E+02	 2.017E+02
  10.720	 2.932E+01	 2.843E+00	-2.169E+02	 5.421E+01	 5.421E+01	 4.598E+00	 1.237E+00	 4.800E+00	-6.342E+00	 3.461E+01	 4.112E+01	-1.668E+00	 1.353E+01	 3.782E+01	 7.635E+00	-2.388E+00	-4.134E+00	 1.158E+01	 1.681E+00	 1.687E+00	 2.147E+02	 2.013E+02
  10.760	 2.933E+01	 2.919E+00	-2.171E+02	 5.421E+01	 5.421E+01	 4.618E+00	 1.631E+00	 4.761E+00	-6.727E+00	 3.644E+01	 4.114E+01	-2.091E+00	 1.345E+01	 3.773E+01	 8.646E+00	-1.232E+00	-2.927E+00	 1.279E+01	 1.677E+00	 1.683E+00	 2.142E+02	 2.009E+02
  10.800	 2.934E+01	 2.970E+00	-2.172E+02	 5.421E+01	 5.421E+01	 4.641E+00	 1.826E+00	 4.717E+00	-6.912E+00	 3.730E+01	 4.116E+01	-2.291E+00	 1.340E+01	 3.763E+01	 9.078E+00	 2.461E-01	-1.567E+00	 1.339E+01	 1.673E+00	 1.679E+00	 2.136E+02	 2.004E+02
  10.840	 2.936E+01	 2.987E+00	-2.174E+02	 5.421E+01	 5.421E+01	 4.666E+00	 1.817E+00	 4.669E+00	-6.891E+00	 3.716E+01	 4.116E+01	-2.273E+00	 1.337E+01	 3.752E+01	 8.851E+00	 1.772E+00	-1.262E-01	 1.336E+01	 1.667E+00	 1.675E+00	 2.130E+02	 1.998E+02
  10.880	 2.937E+01	 2.978E+00	-2.175E+02	 5.421E+01	 5.421E+01	 4.690E+00	 1.599E+00	 4.619E+00	-6.658E+00	 3.600E+01	 4.115E+01	-2.026E+00	 1.334E+01	 3.740E+01	 7.998E+00	 3.062E+00	 1.320E+00	 1.268E+01	 1.662E+00	 1.670E+00	 2.123E+02	 1.993E+02
  10.920	 2.939E+01	 2.966E+00	-2.175E+02	 5.420E+01	 5.420E+01	 4.707E+00	 1.173E+00	 4.567E+00	-6.216E+00	 3.382E+01	 4.109E+01	-1.538E+00	 1.333E+01	 3.730E+01	 6.665E+00	 3.858E+00	 2.697E+00	 1.136E+01	 1.658E+00	 1.665E+00	 2.117E+02	 1.987E+02
  10.960	 2.945E+01	 2.969E+00	-2.175E+02	 5.420E+01	 5.420E+01	 4.713E+00	 5.554E-01	 4.514E+00	-5.584E+00	 3.072E+01	 4.097E+01	-8.324E-01	 1.334E+01	 3.722E+01	 5.111E+00	 3.990E+00	 3.940E+00	 9.450E+00	 1.654E+00	 1.661E+00	 2.112E+02	 1.981E+02
  11.000	 2.949E+01	 2.990E+00	-2.174E+02	 5.420E+01	 5.420E+01	 4.714E+00	-2.250E-01	 4.465E+00	-4.793E+00	 2.687E+01	 4.083E+01	 4.690E-02	 1.335E+01	 3.717E+01	 3.651E+00	 3.423E+00	 4.985E+00	 7.046E+00	 1.652E+00	 1.657E+00	 2.110E+02	 1.977E+02
  11.040	 2.952E+01	 3.045E+00	-2.173E+02	 5.420E+01	 5.420E+01	 4.709E+00	-1.135E+00	 4.423E+00	-3.877E+00	 2.243E+01	 4.066E+01	 1.066E+00	 1.339E+01	 3.716E+01	 2.577E+00	 2.258E+00	 5.771E+00	 4.251E+00	 1.651E+00	 1.654E+00	 2.109E+02	 1.973E+02
  11.080	 2.955E+01	 3.145E+00	-2.171E+02	 5.420E+01	 5.420E+01	 4.701E+00	-2.135E+00	 4.395E+00	-2.876E+00	 1.758E+01	 4.048E+01	 2.186E+00	 1.344E+01	 3.717E+01	 2.118E+00	 7.057E-01	 6.251E+00	 1.190E+00	 1.652E+00	 1.653E+00	 2.110E+02	 1.972E+02
  11.120	 2.955E+01	 3.278E+00	-2.170E+02	 5.420E+01	 5.420E+01	 4.691E+00	-3.171E+00	 4.382E+00	-1.844E+00	 1.257E+01	 4.033E+01	 3.347E+00	 1.352E+01	 3.722E+01	 2.390E+00	-9.193E-01	 6.397E+00	-1.975E+00	 1.654E+00	 1.653E+00	 2.112E+02	 1.972E+02
  11.160	 2.954E+01	 3.423E+00	-2.169E+02	 5.420E+01	 5.420E+01	 4.675E+00	-4.183E+00	 4.378E+00	-8.424E-01	 7.724E+00	 4.018E+01	 4.478E+00	 1.362E+01	 3.730E+01	 3.353E+00	-2.272E+00	 6.195E+00	-5.059E+00	 1.658E+00	 1.654E+00	 2.117E+02	 1.973E+02
  11.200	 2.952E+01	 3.552E+00	-2.168E+02	 5.420E+01	 5.420E+01	 4.652E+00	-5.108E+00	 4.385E+00	 7.025E-02	 3.316E+00	 4.004E+01	 5.509E+00	 1.374E+01	 3.740E+01	 4.814E+00	-3.060E+00	 5.655E+00	-7.877E+00	 1.662E+00	 1.657E+00	 2.123E+02	 1.976E+02
  11.240	 2.949E+01	 3.634E+00	-2.168E+02	 5.420E+01	 5.420E+01	 4.625E+00	-5.890E+00	 4.388E+00	 8.378E-01	-3.897E-01	 3.990E+01	 6.380E+00	 1.385E+01	 3.751E+01	 6.459E+00	-3.111E+00	 4.807E+00	-1.026E+01	 1.667E+00	 1.660E+00	 2.129E+02	 1.981E+02
  11.280	 2.941E+01	 3.627E+00	-2.168E+02	 5.420E+01	 5.420E+01	 4.604E+00	-6.474E+00	 4.416E+00	 1.404E+00	-3.101E+00	 3.986E+01	 7.014E+00	 1.397E+01	 3.761E+01	 7.908E+00	-2.420E+00	 3.684E+00	-1.204E+01	 1.672E+00	 1.664E+00	 2.135E+02	 1.986E+02
  11.320	 2.936E+01	 3.537E+00	-2.168E+02	 5.421E+01	 5.421E+01	 4.593E+00	-6.834E+00	 4.467E+00	 1.743E+00	-4.707E+00	 3.991E+01	 7.391E+00	 1.410E+01	 3.775E+01	 8.860E+00	-1.158E+00	 2.359E+00	-1.313E+01	 1.678E+00	 1.669E+00	 2.143E+02	 1.991E+02
  11.360	 2.934E+01	 3.386E+00	-2.168E+02	 5.421E+01	 5.421E+01	 4.584E+00	-6.956E+00	 4.529E+00	 1.845E+00	-5.178E+00	 4.002E+01	 7.503E+00	 1.422E+01	 3.786E+01	 9.127E+00	 3.943E-01	 9.168E-01	-1.349E+01	 1.683E+00	 1.674E+00	 2.149E+02	 1.998E+02
  11.400	 2.931E+01	 3.182E+00	-2.167E+02	 5.421E+01	 5.421E+01	 4.582E+00	-6.833E+00	 4.598E+00	 1.707E+00	-4.489E+00	 4.019E+01	 7.337E+00	 1.432E+01	 3.795E+01	 8.654E+00	 1.901E+00	-5.581E-01	-1.311E+01	 1.687E+00	 1.679E+00	 2.154E+02	 2.004E+02
  11.440	 2.928E+01	 2.954E+00	-2.167E+02	 5.421E+01	 5.421E+01	 4.584E+00	-6.479E+00	 4.669E+00	 1.344E+00	-2.687E+00	 4.039E+01	 6.906E+00	 1.438E+01	 3.801E+01	 7.551E+00	 3.039E+00	-1.989E+00	-1.203E+01	 1.689E+00	 1.684E+00	 2.158E+02	 2.009E+02
  11.480	 2.926E+01	 2.754E+00	-2.166E+02	 5.421E+01	 5.421E+01	 4.584E+00	-5.930E+00	 4.732E+00	 7.896E-01	 3.480E-02	 4.058E+01	 6.263E+00	 1.439E+01	 3.805E+01	 6.073E+00	 3.584E+00	-3.306E+00	-1.036E+01	 1.691E+00	 1.687E+00	 2.160E+02	 2.013E+02
  11.520	 2.924E+01	 2.612E+00	-2.164E+02	 5.422E+01	 5.422E+01	 4.575E+00	-5.223E+00	 4.785E+00	 8.522E-02	 3.468E+00	 4.072E+01	 5.459E+00	 1.438E+01	 3.805E+01	 4.532E+00	 3.453E+00	-4.450E+00	-8.207E+00	 1.691E+00	 1.689E+00	 2.160E+02	 2.016E+02
  11.560	 2.925E+01	 2.549E+00	-2.164E+02	 5.422E+01	 5.422E+01	 4.561E+00	-4.401E+00	 4.824E+00	-7.318E-01	 7.431E+00	 4.081E+01	 4.538E+00	 1.433E+01	 3.803E+01	 3.220E+00	 2.700E+00	-5.364E+00	-5.697E+00	 1.690E+00	 1.690E+00	 2.159E+02	 2.017E+02
  11.600	 2.926E+01	 2.552E+00	-2.163E+02	 5.422E+01	 5.422E+01	 4.550E+00	-3.498E+00	 4.850E+00	-1.626E+00	 1.177E+01	 4.086E+01	 3.532E+00	 1.424E+01	 3.798E+01	 2.370E+00	 1.478E+00	-6.007E+00	-2.941E+00	 1.688E+00	 1.690E+00	 2.156E+02	 2.017E+02
  11.640	 2.926E+01	 2.603E+00	-2.163E+02	 5.421E+01	 5.422E+01	 4.545E+00	-2.554E+00	 4.861E+00	-2.561E+00	 1.630E+01	 4.089E+01	 2.483E+00	 1.413E+01	 3.793E+01	 2.138E+00	 2.175E-02	-6.356E+00	-5.495E-02	 1.686E+00	 1.689E+00	 2.153E+02	 2.015E+02
  11.680	 2.926E+01	 2.684E+00	-2.164E+02	 5.421E+01	 5.421E+01	 4.547E+00	-1.611E+00	 4.858E+00	-3.496E+00	 2.082E+01	 4.091E+01	 1.440E+00	 1.399E+01	 3.787E+01	 2.565E+00	-1.390E+00	-6.397E+00	 2.834E+00	 1.683E+00	 1.687E+00	 2.150E+02	 2.013E+02
  11.720	 2.925E+01	 2.773E+00	-2.166E+02	 5.421E+01	 5.421E+01	 4.554E+00	-7.071E-01	 4.843E+00	-4.391E+00	 2.516E+01	 4.092E+01	 4.458E-01	 1.385E+01	 3.780E+01	 3.575E+00	-2.486E+00	-6.128E+00	 5.603E+00	 1.680E+00	 1.684E+00	 2.146E+02	 2.010E+02
  11.760	 2.924E+01	 2.851E+00	-2.168E+02	 5.421E+01	 5.421E+01	 4.563E+00	 1.169E-01	 4.814E+00	-5.206E+00	 2.910E+01	 4.091E+01	-4.562E-01	 1.372E+01	 3.772E+01	 4.978E+00	-3.052E+00	-5.555E+00	 8.126E+00	 1.676E+00	 1.681E+00	 2.141E+02	 2.006E+02
  11.800	 2.927E+01	 2.908E+00	-2.170E+02	 5.421E+01	 5.421E+01	 4.565E+00	 8.211E-01	 4.767E+00	-5.899E+00	 3.245E+01	 4.086E+01	-1.224E+00	 1.360E+01	 3.763E+01	 6.514E+00	-2.962E+00	-4.706E+00	 1.028E+01	 1.673E+00	 1.678E+00	 2.136E+02	 2.002E+02
  11.840	 2.929E+01	 2.945E+00	-2.171E+02	 5.421E+01	 5.421E+01	 4.574E+00	 1.364E+00	 4.722E+00	-6.434E+00	 3.502E+01	 4.083E+01	-1.814E+00	 1.349E+01	 3.755E+01	 7.875E+00	-2.219E+00	-3.616E+00	 1.194E+01	 1.669E+00	 1.675E+00	 2.132E+02	 1.998E+02
  11.880	 2.931E+01	 2.975E+00	-2.173E+02	 5.421E+01	 5.421E+01	 4.592E+00	 1.713E+00	 4.679E+00	-6.777E+00	 3.666E+01	 4.084E+01	-2.183E+00	 1.341E+01	 3.749E+01	 8.786E+00	-9.602E-01	-2.334E+00	 1.301E+01	 1.666E+00	 1.671E+00	 2.128E+02	 1.994E+02
  11.920	 2.934E+01	 2.999E+00	-2.174E+02	 5.420E+01	 5.420E+01	 4.613E+00	 1.852E+00	 4.632E+00	-6.909E+00	 3.727E+01	 4.084E+01	-2.322E+00	 1.335E+01	 3.743E+01	 9.065E+00	 5.696E-01	-9.255E-01	 1.343E+01	 1.663E+00	 1.668E+00	 2.124E+02	 1.990E+02
  11.960	 2.937E+01	 3.020E+00	-2.174E+02	 5.420E+01	 5.420E+01	 4.638E+00	 1.769E+00	 4.586E+00	-6.819E+00	 3.680E+01	 4.086E+01	-2.221E+00	 1.331E+01	 3.736E+01	 8.651E+00	 2.071E+00	 5.326E-01	 1.318E+01	 1.660E+00	 1.665E+00	 2.121E+02	 1.986E+02
  12.000	 2.939E+01	 3.050E+00	-2.175E+02	 5.420E+01	 5.420E+01	 4.663E+00	 1.461E+00	 4.545E+00	-6.505E+00	 3.525E+01	 4.086E+01	-1.865E+00	 1.329E+01	 3.731E+01	 7.609E+00	 3.240E+00	 1.962E+00	 1.223E+01	 1.658E+00	 1.662E+00	 2.118E+02	 1.983E+02
  12.040	 2.958E+01	-5.128E-01	-2.184E+02	 5.439E+01	 5.450E+01	 4.836E+00	 2.417E+00	 4.657E+00	-4.450E+00	 2.170E+01	 4.194E+01	-4.816E+00	 1.324E+01	 1.212E+01	 5.926E+00	 3.646E+00	 3.331E+00	 1.032E+01	 5.388E-01	 0.000E+00	 6.919E+01	 0.000E+00
  12.080	 3.069E+01	-1.245E+00	-2.205E+02	 5.457E+01	 5.459E+01	 4.676E+00	 2.057E+00	 4.446E+00	-3.417E+00	 1.621E+01	 4.101E+01	-4.498E+00	 1.317E+01	 7.341E+00	 4.398E+00	 3.484E+00	 4.455E+00	 8.191E+00	 3.263E-01	 0.000E+00	 4.196E+01	 0.000E+00
  12.120	 3.058E+01	-7.657E-03	-2.222E+02	 5.479E+01	 5.475E+01	 4.623E+00	 6.723E-01	 4.349E+00	-3.145E+00	 1.690E+01	 4.020E+01	-1.923E+00	 1.297E+01	 1.779E+01	 3.175E+00	 2.789E+00	 5.408E+00	 5.757E+00	 7.908E-01	 0.000E+00	 1.020E+02	 0.000E+00
  12.160	 3.046E+01	 4.039E-01	-2.235E+02	 5.499E+01	 5.499E+01	 4.638E+00	-4.204E-01	 4.324E+00	-2.167E+00	 1.208E+01	 3.996E+01	-7.983E-01	 1.284E+01	 1.827E+01	 2.315E+00	 1.338E+00	 6.078E+00	 2.630E+00	 8.122E-01	 0.000E+00	 1.052E+02	 0.000E+00
  12.200	 3.122E+01	 2.483E-01	-2.250E+02	 5.519E+01	 5.520E+01	 4.537E+00	-1.310E+00	 4.202E+00	-8.950E-01	 5.048E+00	 3.944E+01	 1.952E-02	 1.293E+01	 1.483E+01	 2.188E+00	-3.667E-01	 6.395E+00	-6.044E-01	 6.591E-01	 0.000E+00	 8.572E+01	 0.000E+00
  12.240	 3.127E+01	 1.017E-01	-2.265E+02	 5.538E+01	 5.538E+01	 4.572E+00	-2.239E+00	 4.246E+00	 6.610E-02	 5.296E-01	 3.964E+01	 1.010E+00	 1.311E+01	 1.470E+01	 2.779E+00	-1.675E+00	 6.395E+00	-3.472E+00	 6.535E-01	 0.000E+00	 8.529E+01	 0.000E+00
  12.280	 3.117E+01	 2.405E-01	-2.282E+02	 5.559E+01	 5.558E+01	 4.643E+00	-3.249E+00	 4.341E+00	 9.191E-01	-3.137E+00	 4.010E+01	 2.089E+00	 1.336E+01	 1.605E+01	 3.922E+00	-2.671E+00	 5.989E+00	-6.321E+00	 7.133E-01	 0.000E+00	 9.341E+01	 0.000E+00
  12.320	 3.145E+01	 5.602E-01	-2.298E+02	 5.579E+01	 5.579E+01	 4.636E+00	-4.228E+00	 4.365E+00	 1.834E+00	-7.764E+00	 4.027E+01	 3.312E+00	 1.366E+01	 1.651E+01	 5.563E+00	-3.264E+00	 5.217E+00	-9.151E+00	 7.337E-01	 0.000E+00	 9.644E+01	 0.000E+00
  12.360	 3.153E+01	 5.036E-01	-2.313E+02	 5.600E+01	 5.600E+01	 4.661E+00	-4.905E+00	 4.452E+00	 2.549E+00	-1.146E+01	 4.062E+01	 4.071E+00	 1.393E+01	 1.608E+01	 7.151E+00	-2.948E+00	 4.198E+00	-1.124E+01	 7.147E-01	 0.000E+00	 9.430E+01	 0.000E+00
  12.400	 3.171E+01	 1.637E-01	-2.328E+02	 5.620E+01	 5.620E+01	 4.666E+00	-5.265E+00	 4.542E+00	 2.935E+00	-1.310E+01	 4.085E+01	 4.255E+00	 1.411E+01	 1.578E+01	 8.186E+00	-1.850E+00	 2.933E+00	-1.240E+01	 7.014E-01	 0.000E+00	 9.288E+01	 0.000E+00
  12.440	 3.204E+01	 5.713E-02	-2.346E+02	 5.640E+01	 5.640E+01	 4.610E+00	-5.502E+00	 4.565E+00	 3.138E+00	-1.400E+01	 4.073E+01	 4.482E+00	 1.421E+01	 1.601E+01	 8.765E+00	-4.253E-01	 1.449E+00	-1.308E+01	 7.116E-01	 0.000E+00	 9.457E+01	 0.000E+00
  12.480	 3.219E+01	 4.984E-02	-2.362E+02	 5.661E+01	 5.661E+01	 4.565E+00	-5.557E+00	 4.592E+00	 3.156E+00	-1.425E+01	 4.062E+01	 4.660E+00	 1.422E+01	 1.628E+01	 8.752E+00	 1.118E+00	-9.755E-02	-1.315E+01	 7.235E-01	 0.000E+00	 9.650E+01	 0.000E+00
  12.520	 3.242E+01	-1.843E-01	-2.377E+02	 5.681E+01	 5.681E+01	 4.523E+00	-5.268E+00	 4.634E+00	 2.886E+00	-1.288E+01	 4.056E+01	 4.262E+00	 1.421E+01	 1.609E+01	 7.880E+00	 2.440E+00	-1.592E+00	-1.231E+01	 7.153E-01	 0.000E+00	 9.575E+01	 0.000E+00
  12.560	 3.278E+01	-4.332E-01	-2.393E+02	 5.702E+01	 5.702E+01	 4.473E+00	-4.730E+00	 4.663E+00	 2.383E+00	-1.034E+01	 4.050E+01	 3.528E+00	 1.419E+01	 1.577E+01	 6.472E+00	 3.211E+00	-3.011E+00	-1.075E+01	 7.010E-01	 0.000E+00	 9.418E+01	 0.000E+00
  12.600	 3.299E+01	-4.742E-01	-2.410E+02	 5.722E+01	 5.722E+01	 4.451E+00	-4.078E+00	 4.699E+00	 1.718E+00	-7.176E+00	 4.058E+01	 2.835E+00	 1.417E+01	 1.588E+01	 4.960E+00	 3.355E+00	-4.278E+00	-8.744E+00	 7.057E-01	 0.000E+00	 9.514E+01	 0.000E+00
  12.640	 3.318E+01	-4.590E-01	-2.427E+02	 5.742E+01	 5.742E+01	 4.454E+00	-3.275E+00	 4.744E+00	 8.919E-01	-3.162E+00	 4.076E+01	 1.964E+00	 1.414E+01	 1.609E+01	 3.555E+00	 2.806E+00	-5.289E+00	-6.274E+00	 7.153E-01	 0.000E+00	 9.678E+01	 0.000E+00
  12.680	 3.344E+01	-4.708E-01	-2.444E+02	 5.763E+01	 5.763E+01	 4.459E+00	-2.321E+00	 4.781E+00	-4.540E-02	 1.438E+00	 4.097E+01	 8.224E-01	 1.411E+01	 1.593E+01	 2.551E+00	 1.642E+00	-6.009E+00	-3.421E+00	 7.081E-01	 0.000E+00	 9.615E+01	 0.000E+00
  12.720	 3.370E+01	-4.145E-01	-2.462E+02	 5.783E+01	 5.783E+01	 4.467E+00	-1.314E+00	 4.801E+00	-1.037E+00	 6.194E+00	 4.113E+01	-3.139E-01	 1.406E+01	 1.578E+01	 2.196E+00	 1.768E-01	-6.405E+00	-3.952E-01	 7.013E-01	 0.000E+00	 9.555E+01	 0.000E+00
  12.760	 3.394E+01	-3.105E-01	-2.481E+02	 5.803E+01	 5.803E+01	 4.476E+00	-3.056E-01	 4.798E+00	-2.064E+00	 1.116E+01	 4.121E+01	-1.403E+00	 1.395E+01	 1.594E+01	 2.560E+00	-1.304E+00	-6.431E+00	 2.686E+00	 7.083E-01	 0.000E+00	 9.684E+01	 0.000E+00
  12.800	 3.421E+01	-2.383E-01	-2.500E+02	 5.823E+01	 5.823E+01	 4.481E+00	 6.809E-01	 4.773E+00	-3.061E+00	 1.604E+01	 4.120E+01	-2.512E+00	 1.380E+01	 1.600E+01	 3.595E+00	-2.492E+00	-6.091E+00	 5.674E+00	 7.112E-01	 0.000E+00	 9.759E+01	 0.000E+00
  12.840	 3.448E+01	-1.701E-01	-2.520E+02	 5.844E+01	 5.844E+01	 4.483E+00	 1.572E+00	 4.726E+00	-3.941E+00	 2.026E+01	 4.112E+01	-3.499E+00	 1.364E+01	 1.586E+01	 5.068E+00	-3.057E+00	-5.394E+00	 8.343E+00	 7.050E-01	 0.000E+00	 9.706E+01	 0.000E+00
  12.880	 3.475E+01	-8.464E-02	-2.539E+02	 5.864E+01	 5.864E+01	 4.484E+00	 2.302E+00	 4.665E+00	-4.671E+00	 2.373E+01	 4.101E+01	-4.269E+00	 1.348E+01	 1.583E+01	 6.644E+00	-2.872E+00	-4.360E+00	 1.054E+01	 7.035E-01	 0.000E+00	 9.719E+01	 0.000E+00
  12.920	 3.501E+01	-1.186E-02	-2.558E+02	 5.884E+01	 5.884E+01	 4.492E+00	 2.836E+00	 4.598E+00	-5.218E+00	 2.638E+01	 4.092E+01	-4.836E+00	 1.334E+01	 1.591E+01	 7.984E+00	-1.982E+00	-3.051E+00	 1.217E+01	 7.071E-01	 0.000E+00	 9.802E+01	 0.000E+00
  12.960	 3.523E+01	 5.750E-02	-2.577E+02	 5.904E+01	 5.904E+01	 4.510E+00	 3.133E+00	 4.532E+00	-5.518E+00	 2.781E+01	 4.089E+01	-5.150E+00	 1.324E+01	 1.590E+01	 8.745E+00	-5.550E-01	-1.555E+00	 1.305E+01	 7.065E-01	 0.000E+00	 9.828E+01	 0.000E+00
  13.000	 3.545E+01	 1.551E-01	-2.596E+02	 5.924E+01	 5.924E+01	 4.532E+00	 3.157E+00	 4.469E+00	-5.537E+00	 2.783E+01	 4.089E+01	-5.146E+00	 1.318E+01	 1.582E+01	 8.706E+00	 1.071E+00	 3.658E-02	 1.311E+01	 7.033E-01	 0.000E+00	 9.817E+01	 0.000E+00
  13.040	 3.566E+01	 8.928E-01	-2.613E+02	 5.942E+01	 5.940E+01	 4.531E+00	 2.684E+00	 4.390E+00	-5.517E+00	 2.788E+01	 4.075E+01	-4.507E+00	 1.317E+01	 1.898E+01	 7.917E+00	 2.502E+00	 1.621E+00	 1.239E+01	 8.434E-01	 0.000E+00	 1.180E+02	 0.000E+00
  13.080	 3.570E+01	 2.239E+00	-2.624E+02	 5.954E+01	 5.950E+01	 4.519E+00	 1.666E+00	 4.312E+00	-5.547E+00	 2.922E+01	 4.048E+01	-2.703E+00	 1.321E+01	 2.771E+01	 6.582E+00	 3.420E+00	 3.105E+00	 1.096E+01	 1.231E+00	 0.000E+00	 1.726E+02	 0.000E+00
  13.120	 3.556E+01	 3.469E+00	-2.629E+02	 5.961E+01	 5.958E+01	 4.548E+00	 4.763E-01	 4.286E+00	-5.274E+00	 2.872E+01	 4.047E+01	-9.328E-01	 1.331E+01	 3.493E+01	 4.929E+00	 3.551E+00	 4.402E+00	 8.782E+00	 1.552E+00	 0.000E+00	 2.179E+02	 0.000E+00
  13.160	 3.552E+01	 4.458E+00	-2.628E+02	 5.961E+01	 5.959E+01	 4.570E+00	-7.919E-01	 4.268E+00	-4.708E+00	 2.647E+01	 4.052E+01	 7.737E-01	 1.348E+01	 4.028E+01	 3.387E+00	 2.835E+00	 5.409E+00	 6.012E+00	 1.790E+00	 0.000E+00	 2.513E+02	 0.000E+00
  13.200	 3.536E+01	 5.458E+00	-2.623E+02	 5.956E+01	 5.953E+01	 4.603E+00	-2.204E+00	 4.282E+00	-4.070E+00	 2.407E+01	 4.064E+01	 2.702E+00	 1.369E+01	 4.636E+01	 2.372E+00	 1.481E+00	 6.070E+00	 2.888E+00	 2.060E+00	 0.000E+00	 2.890E+02	 0.000E+00
  13.240	 3.507E+01	 6.535E+00	-2.612E+02	 5.945E+01	 5.942E+01	 4.644E+00	-3.720E+00	 4.327E+00	-3.401E+00	 2.167E+01	 4.081E+01	 4.765E+00	 1.392E+01	 5.306E+01	 2.127E+00	-2.374E-01	 6.348E+00	-4.730E-01	 2.358E+00	 0.000E+00	 3.302E+02	 0.000E+00
  13.280	 3.477E+01	 7.631E+00	-2.597E+02	 5.929E+01	 5.926E+01	 4.660E+00	-5.242E+00	 4.366E+00	-2.704E+00	 1.902E+01	 4.088E+01	 6.839E+00	 1.417E+01	 5.952E+01	 2.755E+00	-1.947E+00	 6.219E+00	-3.904E+00	 2.645E+00	 0.000E+00	 3.694E+02	 0.000E+00
  13.320	 3.445E+01	 8.641E+00	-2.576E+02	 5.907E+01	 5.904E+01	 4.662E+00	-6.658E+00	 4.410E+00	-2.081E+00	 1.670E+01	 4.091E+01	 8.774E+00	 1.441E+01	 6.572E+01	 4.128E+00	-3.156E+00	 5.704E+00	-7.088E+00	 2.921E+00	 0.000E+00	 4.063E+02	 0.000E+00
  13.360	 3.404E+01	 9.560E+00	-2.551E+02	 5.879E+01	 5.876E+01	 4.672E+00	-7.910E+00	 4.476E+00	-1.627E+00	 1.529E+01	 4.098E+01	 1.048E+01	 1.464E+01	 7.195E+01	 5.894E+00	-3.539E+00	 4.843E+00	-9.791E+00	 3.198E+00	 0.000E+00	 4.428E+02	 0.000E+00
  13.400	 3.357E+01	 1.047E+01	-2.521E+02	 5.846E+01	 5.843E+01	 4.681E+00	-8.977E+00	 4.544E+00	-1.372E+00	 1.485E+01	 4.104E+01	 1.200E+01	 1.485E+01	 7.832E+01	 7.650E+00	-3.055E+00	 3.684E+00	-1.192E+01	 3.481E+00	 0.000E+00	 4.792E+02	 0.000E+00
  13.440	 3.301E+01	 1.134E+01	-2.487E+02	 5.806E+01	 5.803E+01	 4.698E+00	-9.811E+00	 4.624E+00	-1.350E+00	 1.550E+01	 4.116E+01	 1.329E+01	 1.506E+01	 8.469E+01	 8.984E+00	-1.812E+00	 2.313E+00	-1.333E+01	 3.764E+00	 0.000E+00	 5.147E+02	 0.000E+00
  13.480	 3.237E+01	 1.211E+01	-2.447E+02	 5.761E+01	 5.758E+01	 4.723E+00	-1.036E+01	 4.718E+00	-1.598E+00	 1.748E+01	 4.136E+01	 1.422E+01	 1.526E+01	 9.095E+01	 9.538E+00	-9.762E-02	 8.299E-01	-1.390E+01	 4.042E+00	 0.000E+00	 5.484E+02	 0.000E+00
  13.520	 3.169E+01	 1.262E+01	-2.404E+02	 5.711E+01	 5.709E+01	 4.746E+00	-1.057E+01	 4.815E+00	-2.041E+00	 2.052E+01	 4.159E+01	 1.483E+01	 1.544E+01	 9.650E+01	 9.213E+00	 1.660E+00	-6.851E-01	-1.362E+01	 4.289E+00	 0.000E+00	 5.769E+02	 0.000E+00
  13.560	 3.098E+01	 1.238E+01	-2.359E+02	 5.660E+01	 5.660E+01	 4.793E+00	-1.022E+01	 4.937E+00	-2.379E+00	 2.205E+01	 4.204E+01	 1.433E+01	 1.558E+01	 9.618E+01	 8.101E+00	 3.046E+00	-2.153E+00	-1.256E+01	 4.275E+00	 0.000E+00	 5.701E+02	 0.000E+00
  13.600	 3.049E+01	 1.190E+01	-2.316E+02	 5.608E+01	 5.609E+01	 4.803E+00	-9.535E+00	 5.020E+00	-2.800E+00	 2.373E+01	 4.231E+01	 1.333E+01	 1.564E+01	 9.390E+01	 6.495E+00	 3.767E+00	-3.466E+00	-1.081E+01	 4.173E+00	 0.000E+00	 5.515E+02	 0.000E+00
  13.640	 2.993E+01	 1.177E+01	-2.273E+02	 5.557E+01	 5.557E+01	 4.791E+00	-8.829E+00	 5.066E+00	-3.520E+00	 2.737E+01	 4.232E+01	 1.258E+01	 1.558E+01	 9.422E+01	 4.781E+00	 3.723E+00	-4.570E+00	-8.562E+00	 4.188E+00	 0.000E+00	 5.483E+02	 0.000E+00
  13.680	 2.938E+01	 1.176E+01	-2.231E+02	 5.506E+01	 5.505E+01	 4.804E+00	-8.035E+00	 5.097E+00	-4.393E+00	 3.171E+01	 4.227E+01	 1.175E+01	 1.540E+01	 9.494E+01	 3.276E+00	 2.951E+00	-5.419E+00	-5.897E+00	 4.219E+00	 0.000E+00	 5.473E+02	 0.000E+00
  13.720	 2.884E+01	 1.167E+01	-2.190E+02	 5.454E+01	 5.454E+01	 4.806E+00	-7.100E+00	 5.090E+00	-5.308E+00	 3.615E+01	 4.211E+01	 1.069E+01	 1.516E+01	 9.479E+01	 2.275E+00	 1.592E+00	-5.973E+00	-2.940E+00	 4.213E+00	 0.000E+00	 5.414E+02	 0.000E+00
  13.760	 2.826E+01	 1.162E+01	-2.150E+02	 5.403E+01	 5.403E+01	 4.815E+00	-6.128E+00	 5.078E+00	-6.240E+00	 4.067E+01	 4.199E+01	 9.601E+00	 1.493E+01	 9.452E+01	 1.991E+00	-2.727E-02	-6.237E+00	 9.887E-02	 4.201E+00	 0.000E+00	 5.348E+02	 0.000E+00
  13.800	 2.762E+01	 1.165E+01	-2.110E+02	 5.351E+01	 5.351E+01	 4.835E+00	-5.183E+00	 5.081E+00	-7.169E+00	 4.516E+01	 4.197E+01	 8.611E+00	 1.476E+01	 9.449E+01	 2.445E+00	-1.578E+00	-6.205E+00	 3.097E+00	 4.199E+00	 0.000E+00	 5.295E+02	 0.000E+00
  13.840	 2.707E+01	 1.168E+01	-2.071E+02	 5.300E+01	 5.300E+01	 4.854E+00	-4.280E+00	 5.085E+00	-8.072E+00	 4.956E+01	 4.195E+01	 7.668E+00	 1.464E+01	 9.458E+01	 3.536E+00	-2.817E+00	-5.864E+00	 5.984E+00	 4.203E+00	 0.000E+00	 5.249E+02	 0.000E+00
  13.880	 2.652E+01	 1.168E+01	-2.032E+02	 5.248E+01	 5.248E+01	 4.872E+00	-3.454E+00	 5.066E+00	-8.879E+00	 5.355E+01	 4.194E+01	 6.779E+00	 1.453E+01	 9.454E+01	 5.054E+00	-3.494E+00	-5.238E+00	 8.593E+00	 4.202E+00	 0.000E+00	 5.196E+02	 0.000E+00
  13.920	 2.587E+01	 1.169E+01	-1.994E+02	 5.197E+01	 5.197E+01	 4.873E+00	-2.765E+00	 5.018E+00	-9.528E+00	 5.672E+01	 4.185E+01	 6.062E+00	 1.440E+01	 9.435E+01	 6.697E+00	-3.439E+00	-4.388E+00	 1.075E+01	 4.193E+00	 0.000E+00	 5.134E+02	 0.000E+00
  13.960	 2.531E+01	 1.172E+01	-1.955E+02	 5.145E+01	 5.145E+01	 4.859E+00	-2.239E+00	 4.946E+00	-1.001E+01	 5.906E+01	 4.165E+01	 5.554E+00	 1.425E+01	 9.415E+01	 8.160E+00	-2.693E+00	-3.346E+00	 1.239E+01	 4.185E+00	 0.000E+00	 5.073E+02	 0.000E+00
  14.000	 2.473E+01	 1.172E+01	-1.917E+02	 5.093E+01	 5.093E+01	 4.825E+00	-1.879E+00	 4.861E+00	-1.033E+01	 6.070E+01	 4.132E+01	 5.216E+00	 1.410E+01	 9.404E+01	 9.215E+00	-1.416E+00	-2.168E+00	 1.350E+01	 4.180E+00	 0.000E+00	 5.015E+02	 0.000E+00
  14.040	 2.423E+01	 1.173E+01	-1.879E+02	 5.040E+01	 5.040E+01	 4.760E+00	-1.712E+00	 4.758E+00	-1.046E+01	 6.139E+01	 4.084E+01	 5.082E+00	 1.396E+01	 9.391E+01	 9.648E+00	 1.803E-01	-9.208E-01	 1.400E+01	 4.174E+00	 0.000E+00	 4.957E+02	 0.000E+00
  14.080	 2.383E+01	 1.179E+01	-1.840E+02	 4.988E+01	 4.988E+01	 4.691E+00	-1.757E+00	 4.636E+00	-1.036E+01	 6.091E+01	 4.029E+01	 5.208E+00	 1.381E+01	 9.367E+01	 9.350E+00	 1.775E+00	 3.699E-01	 1.381E+01	 4.163E+00	 0.000E+00	 4.893E+02	 0.000E+00
  14.120	 2.341E+01	 1.185E+01	-1.802E+02	 4.935E+01	 4.935E+01	 4.640E+00	-1.998E+00	 4.517E+00	-1.007E+01	 5.952E+01	 3.976E+01	 5.540E+00	 1.363E+01	 9.347E+01	 8.447E+00	 3.068E+00	 1.666E+00	 1.303E+01	 4.154E+00	 0.000E+00	 4.830E+02	 0.000E+00
  14.160	 2.291E+01	 1.189E+01	-1.763E+02	 4.882E+01	 4.882E+01	 4.603E+00	-2.390E+00	 4.394E+00	-9.645E+00	 5.749E+01	 3.924E+01	 6.039E+00	 1.343E+01	 9.335E+01	 7.148E+00	 3.895E+00	 2.889E+00	 1.174E+01	 4.149E+00	 0.000E+00	 4.773E+02	 0.000E+00
  14.200	 2.237E+01	 1.192E+01	-1.725E+02	 4.829E+01	 4.829E+01	 4.574E+00	-2.922E+00	 4.295E+00	-9.066E+00	 5.474E+01	 3.880E+01	 6.679E+00	 1.329E+01	 9.317E+01	 5.636E+00	 4.146E+00	 3.961E+00	 9.977E+00	 4.141E+00	 0.000E+00	 4.712E+02	 0.000E+00
  14.240	 2.185E+01	 1.196E+01	-1.687E+02	 4.776E+01	 4.776E+01	 4.551E+00	-3.585E+00	 4.247E+00	-8.359E+00	 5.130E+01	 3.846E+01	 7.478E+00	 1.324E+01	 9.296E+01	 4.136E+00	 3.764E+00	 4.845E+00	 7.793E+00	 4.132E+00	 0.000E+00	 4.649E+02	 0.000E+00
  14.280	 2.133E+01	 1.203E+01	-1.648E+02	 4.722E+01	 4.722E+01	 4.525E+00	-4.350E+00	 4.237E+00	-7.558E+00	 4.738E+01	 3.817E+01	 8.395E+00	 1.329E+01	 9.281E+01	 2.919E+00	 2.809E+00	 5.540E+00	 5.290E+00	 4.125E+00	 0.000E+00	 4.590E+02	 0.000E+00
  14.320	 2.088E+01	 1.211E+01	-1.610E+02	 4.668E+01	 4.668E+01	 4.455E+00	-5.175E+00	 4.199E+00	-6.694E+00	 4.319E+01	 3.769E+01	 9.374E+00	 1.340E+01	 9.268E+01	 2.198E+00	 1.454E+00	 6.036E+00	 2.589E+00	 4.119E+00	 0.000E+00	 4.531E+02	 0.000E+00
  14.360	 2.045E+01	 1.217E+01	-1.573E+02	 4.614E+01	 4.614E+01	 4.376E+00	-6.023E+00	 4.136E+00	-5.805E+00	 3.886E+01	 3.713E+01	 1.036E+01	 1.345E+01	 9.249E+01	 2.075E+00	-6.888E-02	 6.321E+00	-1.955E-01	 4.110E+00	 0.000E+00	 4.469E+02	 0.000E+00
  14.400	 1.982E+01	 1.220E+01	-1.535E+02	 4.560E+01	 4.560E+01	 4.345E+00	-6.858E+00	 4.110E+00	-4.932E+00	 3.463E+01	 3.671E+01	 1.132E+01	 1.343E+01	 9.228E+01	 2.529E+00	-1.511E+00	 6.359E+00	-2.944E+00	 4.101E+00	 0.000E+00	 4.407E+02	 0.000E+00
  14.440	 1.932E+01	 1.223E+01	-1.498E+02	 4.506E+01	 4.506E+01	 4.288E+00	-7.653E+00	 4.059E+00	-4.107E+00	 3.068E+01	 3.617E+01	 1.225E+01	 1.338E+01	 9.217E+01	 3.480E+00	-2.669E+00	 6.163E+00	-5.558E+00	 4.097E+00	 0.000E+00	 4.349E+02	 0.000E+00
  14.480	 1.890E+01	 1.226E+01	-1.462E+02	 4.451E+01	 4.451E+01	 4.214E+00	-8.370E+00	 3.996E+00	-3.354E+00	 2.706E+01	 3.556E+01	 1.309E+01	 1.334E+01	 9.200E+01	 4.787E+00	-3.388E+00	 5.754E+00	-7.951E+00	 4.089E+00	 0.000E+00	 4.288E+02	 0.000E+00
  14.520	 1.832E+01	 1.224E+01	-1.425E+02	 4.396E+01	 4.396E+01	 4.154E+00	-8.982E+00	 3.945E+00	-2.701E+00	 2.393E+01	 3.502E+01	 1.382E+01	 1.330E+01	 9.179E+01	 6.253E+00	-3.565E+00	 5.161E+00	-1.003E+01	 4.080E+00	 0.000E+00	 4.226E+02	 0.000E+00
  14.560	 1.763E+01	 1.217E+01	-1.390E+02	 4.341E+01	 4.341E+01	 4.081E+00	-9.468E+00	 3.891E+00	-2.178E+00	 2.147E+01	 3.448E+01	 1.439E+01	 1.330E+01	 9.162E+01	 7.638E+00	-3.218E+00	 4.376E+00	-1.172E+01	 4.072E+00	 0.000E+00	 4.165E+02	 0.000E+00
  14.600	 1.722E+01	 1.211E+01	-1.354E+02	 4.286E+01	 4.286E+01	 3.975E+00	-9.830E+00	 3.824E+00	-1.785E+00	 1.959E+01	 3.383E+01	 1.482E+01	 1.332E+01	 9.144E+01	 8.795E+00	-2.423E+00	 3.447E+00	-1.300E+01	 4.064E+00	 0.000E+00	 4.104E+02	 0.000E+00
  14.640	 1.681E+01	 1.202E+01	-1.318E+02	 4.230E+01	 4.230E+01	 3.886E+00	-1.006E+01	 3.791E+00	-1.520E+00	 1.829E+01	 3.328E+01	 1.510E+01	 1.329E+01	 9.119E+01	 9.602E+00	-1.279E+00	 2.433E+00	-1.386E+01	 4.053E+00	 0.000E+00	 4.039E+02	 0.000E+00
  14.680	 1.611E+01	 1.190E+01	-1.283E+02	 4.174E+01	 4.174E+01	 3.821E+00	-1.014E+01	 3.766E+00	-1.397E+00	 1.772E+01	 3.283E+01	 1.525E+01	 1.318E+01	 9.101E+01	 9.957E+00	 7.217E-02	 1.381E+00	-1.428E+01	 4.045E+00	 0.000E+00	 3.978E+02	 0.000E+00
  14.720	 1.550E+01	 1.176E+01	-1.248E+02	 4.118E+01	 4.118E+01	 3.731E+00	-1.009E+01	 3.707E+00	-1.422E+00	 1.791E+01	 3.228E+01	 1.522E+01	 1.304E+01	 9.088E+01	 9.814E+00	 1.397E+00	 2.623E-01	-1.423E+01	 4.039E+00	 0.000E+00	 3.919E+02	 0.000E+00
  14.760	 1.510E+01	 1.163E+01	-1.213E+02	 4.062E+01	 4.062E+01	 3.622E+00	-9.894E+00	 3.684E+00	-1.567E+00	 1.865E+01	 3.174E+01	 1.502E+01	 1.295E+01	 9.059E+01	 9.250E+00	 2.543E+00	-8.839E-01	-1.377E+01	 4.026E+00	 0.000E+00	 3.853E+02	 0.000E+00
  14.800	 1.448E+01	 1.158E+01	-1.179E+02	 4.005E+01	 4.005E+01	 3.538E+00	-9.620E+00	 3.690E+00	-1.794E+00	 1.969E+01	 3.132E+01	 1.478E+01	 1.287E+01	 9.032E+01	 8.408E+00	 3.476E+00	-1.964E+00	-1.302E+01	 4.014E+00	 0.000E+00	 3.788E+02	 0.000E+00
  14.840	 1.394E+01	 1.155E+01	-1.145E+02	 3.948E+01	 3.948E+01	 3.413E+00	-9.251E+00	 3.633E+00	-2.115E+00	 2.124E+01	 3.069E+01	 1.443E+01	 1.281E+01	 9.008E+01	 7.337E+00	 4.069E+00	-2.982E+00	-1.194E+01	 4.004E+00	 0.000E+00	 3.724E+02	 0.000E+00
  14.880	 1.349E+01	 1.150E+01	-1.112E+02	 3.890E+01	 3.891E+01	 3.272E+00	-8.778E+00	 3.553E+00	-2.538E+00	 2.333E+01	 2.998E+01	 1.388E+01	 1.266E+01	 8.977E+01	 6.118E+00	 4.259E+00	-3.904E+00	-1.051E+01	 3.990E+00	 0.000E+00	 3.657E+02	 0.000E+00
  14.920	 1.302E+01	 1.147E+01	-1.079E+02	 3.833E+01	 3.833E+01	 3.168E+00	-8.249E+00	 3.470E+00	-3.023E+00	 2.571E+01	 2.933E+01	 1.331E+01	 1.239E+01	 8.953E+01	 4.949E+00	 4.066E+00	-4.729E+00	-8.867E+00	 3.979E+00	 0.000E+00	 3.594E+02	 0.000E+00
  14.960	 1.245E+01	 1.151E+01	-1.047E+02	 3.775E+01	 3.775E+01	 3.090E+00	-7.673E+00	 3.408E+00	-3.563E+00	 2.834E+01	 2.875E+01	 1.271E+01	 1.206E+01	 8.934E+01	 3.934E+00	 3.527E+00	-5.444E+00	-7.040E+00	 3.971E+00	 0.000E+00	 3.532E+02	 0.000E+00
  15.000	 1.214E+01	 1.154E+01	-1.016E+02	 3.716E+01	 3.716E+01	 3.027E+00	-7.046E+00	 3.376E+00	-4.157E+00	 3.123E+01	 2.825E+01	 1.198E+01	 1.173E+01	 8.907E+01	 3.141E+00	 2.679E+00	-6.024E+00	-5.028E+00	 3.958E+00	 0.000E+00	 3.466E+02	 0.000E+00
  15.040	 1.156E+01	 1.158E+01	-9.847E+01	 3.658E+01	 3.658E+01	 3.011E+00	-6.381E+00	 3.357E+00	-4.785E+00	 3.429E+01	 2.791E+01	 1.119E+01	 1.139E+01	 8.871E+01	 2.626E+00	 1.620E+00	-6.433E+00	-2.891E+00	 3.943E+00	 0.000E+00	 3.398E+02	 0.000E+00
  15.080	 1.100E+01	 1.158E+01	-9.542E+01	 3.598E+01	 3.599E+01	 2.961E+00	-5.689E+00	 3.284E+00	-5.438E+00	 3.753E+01	 2.740E+01	 1.038E+01	 1.108E+01	 8.841E+01	 2.495E+00	 4.312E-01	-6.728E+00	-6.673E-01	 3.930E+00	 0.000E+00	 3.332E+02	 0.000E+00
  15.120	 1.048E+01	 1.157E+01	-9.241E+01	 3.539E+01	 3.539E+01	 2.879E+00	-4.997E+00	 3.183E+00	-6.087E+00	 4.073E+01	 2.677E+01	 9.571E+00	 1.078E+01	 8.807E+01	 2.761E+00	-7.426E-01	-6.907E+00	 1.566E+00	 3.914E+00	 0.000E+00	 3.264E+02	 0.000E+00
  15.160	 1.012E+01	 1.160E+01	-8.940E+01	 3.479E+01	 3.479E+01	 2.807E+00	-4.341E+00	 3.123E+00	-6.710E+00	 4.375E+01	 2.619E+01	 8.805E+00	 1.049E+01	 8.775E+01	 3.351E+00	-1.769E+00	-6.936E+00	 3.729E+00	 3.900E+00	 0.000E+00	 3.197E+02	 0.000E+00
  15.200	 9.619E+00	 1.162E+01	-8.641E+01	 3.419E+01	 3.419E+01	 2.763E+00	-3.728E+00	 3.049E+00	-7.301E+00	 4.660E+01	 2.562E+01	 8.081E+00	 1.016E+01	 8.747E+01	 4.196E+00	-2.585E+00	-6.802E+00	 5.795E+00	 3.888E+00	 0.000E+00	 3.132E+02	 0.000E+00
  15.240	 9.248E+00	 1.161E+01	-8.342E+01	 3.358E+01	 3.358E+01	 2.724E+00	-3.139E+00	 2.977E+00	-7.860E+00	 4.934E+01	 2.505E+01	 7.343E+00	 9.772E+00	 8.712E+01	 5.250E+00	-3.163E+00	-6.529E+00	 7.769E+00	 3.872E+00	 0.000E+00	 3.064E+02	 0.000E+00
  15.280	 8.910E+00	 1.165E+01	-8.044E+01	 3.297E+01	 3.297E+01	 2.684E+00	-2.606E+00	 2.894E+00	-8.362E+00	 5.176E+01	 2.445E+01	 6.688E+00	 9.381E+00	 8.674E+01	 6.405E+00	-3.427E+00	-6.123E+00	 9.562E+00	 3.855E+00	 0.000E+00	 2.995E+02	 0.000E+00
  15.320	 8.654E+00	 1.170E+01	-7.746E+01	 3.235E+01	 3.235E+01	 2.638E+00	-2.134E+00	 2.815E+00	-8.794E+00	 5.382E+01	 2.386E+01	 6.112E+00	 9.048E+00	 8.632E+01	 7.560E+00	-3.376E+00	-5.593E+00	 1.114E+01	 3.836E+00	 0.000E+00	 2.924E+02	 0.000E+00
  15.360	 8.254E+00	 1.176E+01	-7.450E+01	 3.173E+01	 3.173E+01	 2.623E+00	-1.749E+00	 2.743E+00	-9.148E+00	 5.547E+01	 2.340E+01	 5.655E+00	 8.736E+00	 8.596E+01	 8.606E+00	-3.042E+00	-4.930E+00	 1.246E+01	 3.821E+00	 0.000E+00	 2.856E+02	 0.000E+00
  15.400	 7.840E+00	 1.183E+01	-7.157E+01	 3.110E+01	 3.110E+01	 2.607E+00	-1.449E+00	 2.671E+00	-9.427E+00	 5.672E+01	 2.295E+01	 5.297E+00	 8.452E+00	 8.565E+01	 9.503E+00	-2.438E+00	-4.205E+00	 1.352E+01	 3.807E+00	 0.000E+00	 2.790E+02	 0.000E+00
  15.440	 7.437E+00	 1.192E+01	-6.866E+01	 3.047E+01	 3.047E+01	 2.606E+00	-1.224E+00	 2.620E+00	-9.628E+00	 5.752E+01	 2.259E+01	 5.036E+00	 8.210E+00	 8.527E+01	 1.019E+01	-1.631E+00	-3.426E+00	 1.431E+01	 3.790E+00	 0.000E+00	 2.721E+02	 0.000E+00
  15.480	 7.064E+00	 1.203E+01	-6.578E+01	 2.984E+01	 2.984E+01	 2.588E+00	-1.071E+00	 2.604E+00	-9.760E+00	 5.799E+01	 2.219E+01	 4.847E+00	 8.022E+00	 8.491E+01	 1.065E+01	-7.026E-01	-2.612E+00	 1.485E+01	 3.774E+00	 0.000E+00	 2.653E+02	 0.000E+00
  15.520	 6.844E+00	 1.219E+01	-6.296E+01	 2.919E+01	 2.920E+01	 2.536E+00	-1.006E+00	 2.537E+00	-9.789E+00	 5.787E+01	 2.155E+01	 4.794E+00	 7.804E+00	 8.445E+01	 1.080E+01	 2.525E-01	-1.735E+00	 1.510E+01	 3.753E+00	 0.000E+00	 2.582E+02	 0.000E+00
  15.560	 6.556E+00	 1.231E+01	-6.019E+01	 2.855E+01	 2.855E+01	 2.500E+00	-1.007E+00	 2.466E+00	-9.741E+00	 5.739E+01	 2.092E+01	 4.829E+00	 7.522E+00	 8.392E+01	 1.071E+01	 1.178E+00	-8.399E-01	 1.510E+01	 3.730E+00	 0.000E+00	 2.509E+02	 0.000E+00
  15.600	 6.083E+00	 1.243E+01	-5.748E+01	 2.790E+01	 2.790E+01	 2.494E+00	-1.068E+00	 2.406E+00	-9.654E+00	 5.675E+01	 2.038E+01	 4.946E+00	 7.220E+00	 8.357E+01	 1.043E+01	 2.041E+00	 3.810E-02	 1.491E+01	 3.714E+00	 0.000E+00	 2.441E+02	 0.000E+00
  15.640	 5.729E+00	 1.253E+01	-5.482E+01	 2.724E+01	 2.724E+01	 2.452E+00	-1.172E+00	 2.326E+00	-9.511E+00	 5.582E+01	 1.978E+01	 5.078E+00	 7.049E+00	 8.310E+01	 9.974E+00	 2.837E+00	 8.539E-01	 1.454E+01	 3.693E+00	 0.000E+00	 2.370E+02	 0.000E+00
  15.680	 5.294E+00	 1.256E+01	-5.222E+01	 2.657E+01	 2.658E+01	 2.427E+00	-1.318E+00	 2.306E+00	-9.319E+00	 5.470E+01	 1.935E+01	 5.252E+00	 6.978E+00	 8.264E+01	 9.371E+00	 3.507E+00	 1.620E+00	 1.402E+01	 3.673E+00	 0.000E+00	 2.300E+02	 0.000E+00
  15.720	 5.089E+00	 1.263E+01	-4.967E+01	 2.591E+01	 2.591E+01	 2.358E+00	-1.521E+00	 2.280E+00	-9.097E+00	 5.355E+01	 1.866E+01	 5.533E+00	 6.906E+00	 8.253E+01	 8.689E+00	 3.977E+00	 2.393E+00	 1.335E+01	 3.668E+00	 0.000E+00	 2.239E+02	 0.000E+00
  15.760	 4.880E+00	 1.267E+01	-4.718E+01	 2.524E+01	 2.524E+01	 2.287E+00	-1.754E+00	 2.166E+00	-8.835E+00	 5.226E+01	 1.776E+01	 5.834E+00	 6.691E+00	 8.238E+01	 7.974E+00	 4.260E+00	 3.161E+00	 1.257E+01	 3.661E+00	 0.000E+00	 2.177E+02	 0.000E+00
  15.800	 4.544E+00	 1.253E+01	-4.475E+01	 2.457E+01	 2.457E+01	 2.252E+00	-1.968E+00	 2.045E+00	-8.574E+00	 5.118E+01	 1.702E+01	 6.078E+00	 6.388E+00	 8.222E+01	 7.283E+00	 4.466E+00	 3.844E+00	 1.178E+01	 3.654E+00	 0.000E+00	 2.115E+02	 0.000E+00
  15.840	 4.077E+00	 1.237E+01	-4.240E+01	 2.390E+01	 2.390E+01	 2.266E+00	-2.227E+00	 1.997E+00	-8.304E+00	 5.016E+01	 1.662E+01	 6.439E+00	 6.126E+00	 8.249E+01	 6.552E+00	 4.572E+00	 4.411E+00	 1.090E+01	 3.666E+00	 0.000E+00	 2.064E+02	 0.000E+00
  15.880	 3.963E+00	 1.232E+01	-4.010E+01	 2.323E+01	 2.323E+01	 2.230E+00	-2.553E+00	 1.962E+00	-7.983E+00	 4.874E+01	 1.604E+01	 6.938E+00	 5.977E+00	 8.284E+01	 5.794E+00	 4.455E+00	 4.938E+00	 9.843E+00	 3.682E+00	 0.000E+00	 2.015E+02	 0.000E+00
  15.920	 4.106E+00	 1.236E+01	-3.784E+01	 2.257E+01	 2.257E+01	 2.142E+00	-2.897E+00	 1.867E+00	-7.606E+00	 4.680E+01	 1.523E+01	 7.436E+00	 5.875E+00	 8.271E+01	 5.122E+00	 4.093E+00	 5.493E+00	 8.637E+00	 3.676E+00	 0.000E+00	 1.955E+02	 0.000E+00
  15.960	 3.744E+00	 1.227E+01	-3.565E+01	 2.190E+01	 2.190E+01	 2.154E+00	-3.227E+00	 1.792E+00	-7.234E+00	 4.491E+01	 1.477E+01	 7.895E+00	 5.648E+00	 8.248E+01	 4.578E+00	 3.628E+00	 6.019E+00	 7.416E+00	 3.666E+00	 0.000E+00	 1.891E+02	 0.000E+00
  16.000	 3.266E+00	 1.219E+01	-3.351E+01	 2.123E+01	 2.123E+01	 2.194E+00	-3.560E+00	 1.761E+00	-6.905E+00	 4.340E+01	 1.447E+01	 8.320E+00	 5.379E+00	 8.263E+01	 4.122E+00	 3.149E+00	 6.442E+00	 6.226E+00	 3.672E+00	 0.000E+00	 1.837E+02	 0.000E+00
  16.040	 3.108E+00	 1.220E+01	-3.142E+01	 2.056E+01	 2.056E+01	 2.174E+00	-3.902E+00	 1.713E+00	-6.548E+00	 4.167E+01	 1.397E+01	 8.743E+00	 5.205E+00	 8.258E+01	 3.725E+00	 2.573E+00	 6.776E+00	 4.962E+00	 3.670E+00	 0.000E+00	 1.778E+02	 0.000E+00
  16.080	 3.172E+00	 1.228E+01	-2.938E+01	 1.989E+01	 1.989E+01	 2.110E+00	-4.245E+00	 1.671E+00	-6.163E+00	 3.968E+01	 1.338E+01	 9.150E+00	 5.157E+00	 8.226E+01	 3.471E+00	 1.888E+00	 7.090E+00	 3.629E+00	 3.656E+00	 0.000E+00	 1.714E+02	 0.000E+00
  16.120	 2.879E+00	 1.234E+01	-2.742E+01	 1.922E+01	 1.922E+01	 2.128E+00	-4.595E+00	 1.672E+00	-5.785E+00	 3.769E+01	 1.317E+01	 9.596E+00	 5.092E+00	 8.200E+01	 3.362E+00	 1.153E+00	 7.376E+00	 2.274E+00	 3.645E+00	 0.000E+00	 1.651E+02	 0.000E+00
  16.160	 2.268E+00	 1.238E+01	-2.551E+01	 1.855E+01	 1.855E+01	 2.194E+00	-4.934E+00	 1.703E+00	-5.446E+00	 3.596E+01	 1.322E+01	 1.001E+01	 4.990E+00	 8.194E+01	 3.341E+00	 4.505E-01	 7.577E+00	 9.661E-01	 3.642E+00	 0.000E+00	 1.591E+02	 0.000E+00
  16.200	 1.971E+00	 1.243E+01	-2.367E+01	 1.787E+01	 1.787E+01	 2.201E+00	-5.253E+00	 1.682E+00	-5.105E+00	 3.426E+01	 1.310E+01	 1.037E+01	 4.969E+00	 8.174E+01	 3.377E+00	-2.346E-01	 7.674E+00	-3.177E-01	 3.633E+00	 0.000E+00	 1.530E+02	 0.000E+00
  16.240	 1.818E+00	 1.250E+01	-2.190E+01	 1.719E+01	 1.719E+01	 2.202E+00	-5.569E+00	 1.708E+00	-4.761E+00	 3.247E+01	 1.317E+01	 1.073E+01	 5.100E+00	 8.146E+01	 3.471E+00	-9.303E-01	 7.672E+00	-1.603E+00	 3.620E+00	 0.000E+00	 1.466E+02	 0.000E+00
  16.280	 1.346E+00	 1.262E+01	-2.019E+01	 1.651E+01	 1.651E+01	 2.244E+00	-5.897E+00	 1.799E+00	-4.431E+00	 3.068E+01	 1.359E+01	 1.109E+01	 5.337E+00	 8.129E+01	 3.665E+00	-1.620E+00	 7.631E+00	-2.877E+00	 3.613E+00	 0.000E+00	 1.405E+02	 0.000E+00
  16.320	 1.104E+00	 1.272E+01	-1.855E+01	 1.582E+01	 1.582E+01	 2.263E+00	-6.190E+00	 1.884E+00	-4.130E+00	 2.916E+01	 1.389E+01	 1.134E+01	 5.588E+00	 8.109E+01	 3.951E+00	-2.216E+00	 7.571E+00	-4.052E+00	 3.604E+00	 0.000E+00	 1.344E+02	 0.000E+00
  16.360	 8.413E-01	 1.277E+01	-1.697E+01	 1.513E+01	 1.513E+01	 2.252E+00	-6.450E+00	 1.921E+00	-3.857E+00	 2.785E+01	 1.385E+01	 1.155E+01	 5.689E+00	 8.090E+01	 4.320E+00	-2.718E+00	 7.507E+00	-5.134E+00	 3.596E+00	 0.000E+00	 1.282E+02	 0.000E+00
  16.400	 6.216E-01	 1.281E+01	-1.548E+01	 1.444E+01	 1.444E+01	 2.202E+00	-6.695E+00	 1.902E+00	-3.599E+00	 2.662E+01	 1.336E+01	 1.181E+01	 5.564E+00	 8.077E+01	 4.753E+00	-3.164E+00	 7.429E+00	-6.164E+00	 3.590E+00	 0.000E+00	 1.222E+02	 0.000E+00
  16.440	 5.373E-01	 1.287E+01	-1.405E+01	 1.375E+01	 1.375E+01	 2.109E+00	-6.933E+00	 1.827E+00	-3.348E+00	 2.538E+01	 1.246E+01	 1.210E+01	 5.268E+00	 8.062E+01	 5.221E+00	-3.570E+00	 7.322E+00	-7.162E+00	 3.583E+00	 0.000E+00	 1.161E+02	 0.000E+00
  16.480	 3.811E-01	 1.287E+01	-1.269E+01	 1.306E+01	 1.306E+01	 2.021E+00	-7.134E+00	 1.748E+00	-3.125E+00	 2.434E+01	 1.155E+01	 1.231E+01	 4.932E+00	 8.042E+01	 5.697E+00	-3.882E+00	 7.197E+00	-8.056E+00	 3.574E+00	 0.000E+00	 1.100E+02	 0.000E+00
  16.520	 2.218E-01	 1.282E+01	-1.140E+01	 1.236E+01	 1.236E+01	 1.977E+00	-7.314E+00	 1.708E+00	-2.933E+00	 2.349E+01	 1.101E+01	 1.248E+01	 4.696E+00	 8.031E+01	 6.148E+00	-4.138E+00	 7.027E+00	-8.868E+00	 3.569E+00	 0.000E+00	 1.040E+02	 0.000E+00
  16.560	-1.666E-03	 1.277E+01	-1.017E+01	 1.167E+01	 1.167E+01	 1.995E+00	-7.505E+00	 1.741E+00	-2.733E+00	 2.250E+01	 1.103E+01	 1.270E+01	 4.642E+00	 8.024E+01	 6.627E+00	-4.398E+00	 6.841E+00	-9.687E+00	 3.566E+00	 0.000E+00	 9.803E+01	 0.000E+00
  16.600	-2.810E-01	 1.275E+01	-8.998E+00	 1.097E+01	 1.097E+01	 2.068E+00	-7.709E+00	 1.823E+00	-2.545E+00	 2.156E+01	 1.153E+01	 1.294E+01	 4.783E+00	 8.034E+01	 7.129E+00	-4.635E+00	 6.659E+00	-1.049E+01	 3.571E+00	 0.000E+00	 9.230E+01	 0.000E+00
  16.640	-4.779E-01	 1.269E+01	-7.890E+00	 1.028E+01	 1.028E+01	 2.158E+00	-7.857E+00	 1.931E+00	-2.417E+00	 2.101E+01	 1.227E+01	 1.303E+01	 5.075E+00	 8.041E+01	 7.587E+00	-4.758E+00	 6.485E+00	-1.114E+01	 3.574E+00	 0.000E+00	 8.652E+01	 0.000E+00
  16.680	-6.597E-01	 1.258E+01	-6.844E+00	 9.579E+00	 9.580E+00	 2.245E+00	-7.969E+00	 2.028E+00	-2.300E+00	 2.052E+01	 1.303E+01	 1.308E+01	 5.394E+00	 8.032E+01	 8.037E+00	-4.817E+00	 6.338E+00	-1.171E+01	 3.570E+00	 0.000E+00	 8.058E+01	 0.000E+00
  16.720	-8.278E-01	 1.254E+01	-5.863E+00	 8.884E+00	 8.884E+00	 2.314E+00	-8.081E+00	 2.091E+00	-2.195E+00	 2.005E+01	 1.358E+01	 1.317E+01	 5.626E+00	 8.032E+01	 8.492E+00	-4.855E+00	 6.211E+00	-1.226E+01	 3.570E+00	 0.000E+00	 7.472E+01	 0.000E+00
  16.760	-1.028E+00	 1.250E+01	-4.952E+00	 8.186E+00	 8.187E+00	 2.362E+00	-8.173E+00	 2.123E+00	-2.105E+00	 1.965E+01	 1.383E+01	 1.319E+01	 5.682E+00	 8.020E+01	 8.923E+00	-4.847E+00	 6.101E+00	-1.276E+01	 3.564E+00	 0.000E+00	 6.876E+01	 0.000E+00
  16.800	-1.104E+00	 1.241E+01	-4.112E+00	 7.487E+00	 7.488E+00	 2.375E+00	-8.255E+00	 2.099E+00	-2.019E+00	 1.923E+01	 1.368E+01	 1.322E+01	 5.523E+00	 8.002E+01	 9.323E+00	-4.838E+00	 5.982E+00	-1.321E+01	 3.556E+00	 0.000E+00	 6.274E+01	 0.000E+00
  16.840	-1.176E+00	 1.239E+01	-3.338E+00	 6.786E+00	 6.787E+00	 2.360E+00	-8.341E+00	 2.053E+00	-1.922E+00	 1.868E+01	 1.324E+01	 1.333E+01	 5.210E+00	 7.982E+01	 9.727E+00	-4.848E+00	 5.867E+00	-1.368E+01	 3.547E+00	 0.000E+00	 5.673E+01	 0.000E+00
  16.880	-1.231E+00	 1.236E+01	-2.643E+00	 6.083E+00	 6.083E+00	 2.328E+00	-8.403E+00	 2.001E+00	-1.848E+00	 1.834E+01	 1.262E+01	 1.344E+01	 4.821E+00	 7.972E+01	 1.009E+01	-4.842E+00	 5.751E+00	-1.409E+01	 3.543E+00	 0.000E+00	 5.079E+01	 0.000E+00
  16.920	-1.109E+00	 1.234E+01	-2.025E+00	 5.378E+00	 5.379E+00	 2.261E+00	-8.435E+00	 1.928E+00	-1.801E+00	 1.818E+01	 1.185E+01	 1.349E+01	 4.461E+00	 7.962E+01	 1.041E+01	-4.804E+00	 5.656E+00	-1.444E+01	 3.539E+00	 0.000E+00	 4.485E+01	 0.000E+00
  16.960	-1.092E+00	 1.235E+01	-1.489E+00	 4.670E+00	 4.672E+00	 2.213E+00	-8.467E+00	 1.857E+00	-1.733E+00	 1.779E+01	 1.129E+01	 1.357E+01	 4.216E+00	 7.932E+01	 1.074E+01	-4.785E+00	 5.578E+00	-1.479E+01	 3.525E+00	 0.000E+00	 3.881E+01	 0.000E+00
  17.000	-1.245E+00	 1.236E+01	-1.032E+00	 3.960E+00	 3.961E+00	 2.206E+00	-8.495E+00	 1.840E+00	-1.671E+00	 1.744E+01	 1.116E+01	 1.363E+01	 4.173E+00	 7.906E+01	 1.105E+01	-4.802E+00	 5.483E+00	-1.514E+01	 3.514E+00	 0.000E+00	 3.279E+01	 0.000E+00
  17.040	-1.260E+00	 1.228E+01	-6.566E-01	 3.249E+00	 3.248E+00	 2.217E+00	-8.498E+00	 1.863E+00	-1.642E+00	 1.747E+01	 1.138E+01	 1.369E+01	 4.338E+00	 7.911E+01	 1.131E+01	-4.820E+00	 5.393E+00	-1.543E+01	 3.516E+00	 0.000E+00	 2.691E+01	 0.000E+00
  17.080	-1.262E+00	 1.224E+01	-3.655E-01	 2.540E+00	 2.539E+00	 2.248E+00	-8.527E+00	 1.915E+00	-1.635E+00	 1.747E+01	 1.193E+01	 1.382E+01	 4.666E+00	 7.943E+01	 1.160E+01	-4.889E+00	 5.316E+00	-1.577E+01	 3.530E+00	 0.000E+00	 2.112E+01	 0.000E+00
  17.120	-1.352E+00	 1.230E+01	-1.517E-01	 1.833E+00	 1.832E+00	 2.314E+00	-8.584E+00	 2.005E+00	-1.598E+00	 1.707E+01	 1.274E+01	 1.400E+01	 5.085E+00	 7.953E+01	 1.194E+01	-4.998E+00	 5.270E+00	-1.617E+01	 3.535E+00	 0.000E+00	 1.526E+01	 0.000E+00
  17.160	-1.432E+00	 1.231E+01	-2.176E-02	 1.126E+00	 1.126E+00	 2.396E+00	-8.592E+00	 2.118E+00	-1.609E+00	 1.699E+01	 1.359E+01	 1.401E+01	 5.491E+00	 7.952E+01	 1.219E+01	-5.067E+00	 5.244E+00	-1.644E+01	 3.534E+00	 0.000E+00	 9.374E+00	 0.000E+00
  17.200	-1.492E+00	 1.228E+01	 2.787E-02	 4.191E-01	 4.192E-01	 2.456E+00	-8.563E+00	 2.219E+00	-1.669E+00	 1.722E+01	 1.418E+01	 1.389E+01	 5.787E+00	 7.950E+01	 1.237E+01	-5.108E+00	 5.244E+00	-1.661E+01	 3.533E+00	 0.000E+00	 3.490E+00	 0.000E+00
  17.240	-1.557E+00	 7.986E+00	-1.027E-01	-1.180E-01	 2.195E-11	 2.632E+00	-7.109E+00	 2.434E+00	-1.907E-01	 9.617E+00	 1.524E+01	 1.239E+01	 5.900E+00	 6.087E+01	 1.136E+01	-4.413E+00	 5.194E+00	-1.543E+01	 2.705E+00	 0.000E+00	 1.399E-10	 0.000E+00
  17.280	-8.909E-01	-7.068E-01	-2.518E-01	-2.904E-01	 9.679E-14	 2.828E+00	-3.485E+00	 2.670E+00	 3.637E+00	-1.977E+01	 1.666E+01	 2.535E+00	 5.554E+00	-5.155E+00	 7.091E+00	-1.473E+00	 5.168E+00	-1.032E+01	-2.291E-01	 0.000E+00	-5.225E-14	 0.000E+00
  17.320	 1.402E+00	-5.922E+00	-8.046E-02	-1.518E-01	 4.872E-15	 2.416E+00	-1.282E+00	 2.281E+00	 5.776E+00	-3.506E+01	 1.401E+01	-2.380E+00	 4.617E+00	-4.092E+01	 4.484E+00	 3.685E-01	 5.294E+00	-7.081E+00	-1.819E+00	 0.000E+00	-2.088E-14	 0.000E+00
  17.360	 7.049E-01	-4.047E+00	-6.233E-02	 6.644E-02	-1.828E-16	 2.080E+00	-2.110E+00	 1.929E+00	 4.873E+00	-2.794E+01	 1.029E+01	-2.430E-01	 2.992E+00	-2.588E+01	 5.377E+00	-1.905E-01	 5.339E+00	-8.109E+00	-1.150E+00	 0.000E+00	 4.956E-16	 0.000E+00
  17.400	 1.782E-01	 1.099E+00	-2.963E-01	 1.476E-01	 9.634E-19	 1.663E+00	-4.160E+00	 1.431E+00	 2.922E+00	-1.324E+01	 5.964E+00	 4.905E+00	 1.476E+00	 8.254E+00	 7.960E+00	-1.972E+00	 5.217E+00	-1.131E+01	 3.668E-01	 0.000E+00	 8.328E-19	 0.000E+00
  17.440	 5.462E-01	 3.775E+00	-3.061E-01	 6.413E-02	-1.104E-22	 1.404E+00	-5.181E+00	 1.167E+00	 2.074E+00	-7.200E+00	 3.787E+00	 7.367E+00	 8.664E-01	 2.375E+01	 9.285E+00	-2.958E+00	 5.134E+00	-1.299E+01	 1.055E+00	 0.000E+00	-2.746E-22	 0.000E+00
  17.480	 8.112E-02	 1.840E+00	-1.242E-01	-5.275E-02	 6.214E-23	 1.609E+00	-4.437E+00	 1.407E+00	 2.723E+00	-1.216E+01	 5.531E+00	 5.538E+00	 1.314E+00	 1.186E+01	 8.285E+00	-2.323E+00	 5.183E+00	-1.176E+01	 5.273E-01	 0.000E+00	 7.720E-23	 0.000E+00
  17.520	 5.013E-01	-1.108E+00	-7.493E-02	-8.069E-02	-1.434E-24	 1.881E+00	-3.304E+00	 1.717E+00	 3.798E+00	-1.997E+01	 8.513E+00	 2.475E+00	 2.465E+00	-6.921E+00	 6.685E+00	-1.240E+00	 5.206E+00	-9.805E+00	-3.076E-01	 0.000E+00	 1.040E-24	 0.000E+00
  17.560	 1.316E-01	-1.855E+00	-1.468E-01	-2.064E-02	 1.585E-26	 2.185E+00	-3.026E+00	 2.011E+00	 4.181E+00	-2.253E+01	 1.152E+01	 1.769E+00	 3.701E+00	-1.214E+01	 6.326E+00	-9.995E-01	 5.185E+00	-9.408E+00	-5.396E-01	 0.000E+00	-2.015E-26	 0.000E+00
  17.600	-8.926E-01	-4.998E-01	-1.071E-01	 4.342E-02	-5.432E-29	 2.440E+00	-3.601E+00	 2.220E+00	 3.569E+00	-1.850E+01	 1.368E+01	 3.230E+00	 4.541E+00	-2.376E+00	 7.198E+00	-1.613E+00	 5.198E+00	-1.046E+01	-1.056E-01	 0.000E+00	 1.352E-29	 0.000E+00
  17.640	-1.045E+00	 8.219E-01	-1.106E-02	 4.434E-02	 7.408E-32	 2.477E+00	-4.124E+00	 2.253E+00	 2.893E+00	-1.339E+01	 1.414E+01	 4.543E+00	 4.839E+00	 8.011E+00	 7.985E+00	-2.178E+00	 5.218E+00	-1.138E+01	 3.561E-01	 0.000E+00	 6.215E-32	 0.000E+00
  17.680	-8.636E-01	 9.602E-01	 6.571E-03	 2.250E-03	 7.537E-33	 2.393E+00	-4.138E+00	 2.180E+00	 2.812E+00	-1.279E+01	 1.342E+01	 4.559E+00	 4.543E+00	 8.748E+00	 7.983E+00	-2.231E+00	 5.176E+00	-1.139E+01	 3.888E-01	 0.000E+00	 6.905E-33	 0.000E+00
  17.720	-4.260E-01	 2.178E-01	 1.779E-02	-2.715E-02	-1.386E-34	 2.209E+00	-3.808E+00	 2.011E+00	 3.209E+00	-1.586E+01	 1.172E+01	 3.886E+00	 3.784E+00	 2.519E+00	 7.470E+00	-1.906E+00	 5.153E+00	-1.080E+01	 1.120E-01	 0.000E+00	-3.656E-35	 0.000E+00
  17.760	 1.632E-01	-5.096E-01	 7.344E-02	-2.352E-02	-6.419E-37	 1.951E+00	-3.465E+00	 1.755E+00	 3.529E+00	-1.815E+01	 9.384E+00	 3.234E+00	 2.801E+00	-2.889E+00	 6.920E+00	-1.533E+00	 5.171E+00	-1.012E+01	-1.284E-01	 0.000E+00	 1.942E-37	 0.000E+00
  17.800	 5.152E-01	-6.912E-01	 9.731E-02	-4.281E-03	-3.481E-39	 1.732E+00	-3.348E+00	 1.529E+00	 3.546E+00	-1.815E+01	 7.315E+00	 3.071E+00	 1.924E+00	-3.843E+00	 6.721E+00	-1.396E+00	 5.178E+00	-9.851E+00	-1.708E-01	 0.000E+00	 1.401E-39	 0.000E+00
  17.840	 4.988E-01	-2.952E-01	 7.532E-02	 9.532E-03	-3.282E-40	 1.615E+00	-3.487E+00	 1.393E+00	 3.433E+00	-1.724E+01	 6.194E+00	 3.483E+00	 1.481E+00	-1.626E+00	 6.937E+00	-1.566E+00	 5.148E+00	-1.013E+01	-7.225E-02	 0.000E+00	 5.587E-41	 0.000E+00
  17.880	 4.490E-01	 1.107E-01	 8.044E-02	 9.216E-03	 9.361E-43	 1.628E+00	-3.653E+00	 1.416E+00	 3.340E+00	-1.655E+01	 6.459E+00	 3.881E+00	 1.628E+00	 5.299E-01	 7.199E+00	-1.771E+00	 5.126E+00	-1.048E+01	 2.355E-02	 0.000E+00	 5.185E-44	 0.000E+00
  17.920	 1.805E-01	 5.997E-02	 1.036E-01	 2.803E-04	-1.401E-44	 1.789E+00	-3.640E+00	 1.603E+00	 3.321E+00	-1.638E+01	 8.041E+00	 3.798E+00	 2.291E+00	 6.088E-01	 7.175E+00	-1.787E+00	 5.117E+00	-1.046E+01	 2.706E-02	 0.000E+00	-1.401E-45	 0.000E+00
  17.960	-9.539E-02	-1.838E-01	 1.018E-01	-4.850E-03	 0.000E+00	 2.003E+00	-3.554E+00	 1.825E+00	 3.377E+00	-1.674E+01	 1.015E+01	 3.501E+00	 3.180E+00	-5.525E-01	 7.037E+00	-1.695E+00	 5.123E+00	-1.029E+01	-2.456E-02	 0.000E+00	 0.000E+00	 0.000E+00
  18.000	-3.829E-01	-2.409E-01	 8.024E-02	-1.801E-03	 0.000E+00	 2.184E+00	-3.546E+00	 2.008E+00	 3.433E+00	-1.710E+01	 1.196E+01	 3.421E+00	 3.945E+00	-1.042E+00	 7.032E+00	-1.696E+00	 5.116E+00	-1.030E+01	-4.633E-02	 0.000E+00	 0.000E+00	 0.000E+00
  18.040	-6.062E-01	-1.116E-01	 6.227E-02	 3.396E-03	 0.000E+00	 2.283E+00	-3.609E+00	 2.099E+00	 3.410E+00	-1.689E+01	 1.287E+01	 3.550E+00	 4.313E+00	-2.920E-01	 7.147E+00	-1.789E+00	 5.101E+00	-1.046E+01	-1.298E-02	 0.000E+00	 0.000E+00	 0.000E+00
  18.080	-5.923E-01	 1.600E-02	 4.394E-02	 3.807E-03	 0.000E+00	 2.255E+00	-3.653E+00	 2.071E+00	 3.349E+00	-1.639E+01	 1.261E+01	 3.654E+00	 4.200E+00	 6.120E-01	 7.222E+00	-1.864E+00	 5.073E+00	-1.056E+01	 2.720E-02	 0.000E+00	 0.000E+00	 0.000E+00
  18.120	-3.232E-01	 7.142E-02	 1.055E-02	-3.675E-04	 0.000E+00	 2.111E+00	-3.655E+00	 1.932E+00	 3.351E+00	-1.638E+01	 1.131E+01	 3.686E+00	 3.689E+00	 5.774E-01	 7.204E+00	-1.879E+00	 5.029E+00	-1.056E+01	 2.566E-02	 0.000E+00	 0.000E+00	 0.000E+00
  18.160	 1.323E-02	 5.595E-02	-2.744E-02	-4.256E-03	 0.000E+00	 1.921E+00	-3.626E+00	 1.747E+00	 3.430E+00	-1.695E+01	 9.559E+00	 3.678E+00	 2.978E+00	-3.624E-01	 7.118E+00	-1.842E+00	 4.987E+00	-1.049E+01	-1.611E-02	 0.000E+00	 0.000E+00	 0.000E+00
  18.200	 2.902E-01	-8.762E-03	-5.910E-02	-4.507E-03	 0.000E+00	 1.755E+00	-3.581E+00	 1.582E+00	 3.502E+00	-1.747E+01	 7.984E+00	 3.623E+00	 2.322E+00	-1.372E+00	 7.005E+00	-1.780E+00	 4.955E+00	-1.037E+01	-6.099E-02	 0.000E+00	 0.000E+00	 0.000E+00
  18.240	 4.458E-01	-4.867E-02	-8.956E-02	-1.974E-03	 0.000E+00	 1.662E+00	-3.554E+00	 1.486E+00	 3.527E+00	-1.762E+01	 7.098E+00	 3.579E+00	 1.951E+00	-1.815E+00	 6.934E+00	-1.747E+00	 4.926E+00	-1.030E+01	-8.067E-02	 0.000E+00	 0.000E+00	 0.000E+00
  18.280	 4.097E-01	-2.060E-03	-1.192E-01	 1.058E-03	 0.000E+00	 1.670E+00	-3.576E+00	 1.493E+00	 3.520E+00	-1.754E+01	 7.186E+00	 3.620E+00	 1.984E+00	-1.583E+00	 6.963E+00	-1.789E+00	 4.897E+00	-1.035E+01	-7.035E-02	 0.000E+00	 0.000E+00	 0.000E+00
  18.320	 2.092E-01	 8.627E-02	-1.383E-01	 2.776E-03	 0.000E+00	 1.775E+00	-3.626E+00	 1.600E+00	 3.496E+00	-1.735E+01	 8.179E+00	 3.701E+00	 2.392E+00	-9.697E-01	 7.054E+00	-1.876E+00	 4.874E+00	-1.049E+01	-4.310E-02	 0.000E+00	 0.000E+00	 0.000E+00
  18.360	-4.891E-02	 1.366E-01	-1.443E-01	 2.696E-03	 0.000E+00	 1.931E+00	-3.665E+00	 1.763E+00	 3.462E+00	-1.709E+01	 9.667E+00	 3.730E+00	 3.010E+00	-3.774E-01	 7.135E+00	-1.950E+00	 4.863E+00	-1.060E+01	-1.677E-02	 0.000E+00	 0.000E+00	 0.000E+00
  18.400	-2.855E-01	 1.411E-01	-1.437E-01	 1.672E-03	 0.000E+00	 2.082E+00	-3.685E+00	 1.919E+00	 3.437E+00	-1.690E+01	 1.110E+01	 3.713E+00	 3.601E+00	-2.043E-02	 7.179E+00	-1.996E+00	 4.859E+00	-1.066E+01	-9.079E-04	 0.000E+00	 0.000E+00	 0.000E+00
  18.440	-4.364E-01	 1.388E-01	-1.386E-01	 7.128E-04	 0.000E+00	 2.177E+00	-3.697E+00	 2.015E+00	 3.429E+00	-1.685E+01	 1.199E+01	 3.705E+00	 3.955E+00	 1.225E-01	 7.201E+00	-2.026E+00	 4.855E+00	-1.070E+01	 5.443E-03	 0.000E+00	 0.000E+00	 0.000E+00
  18.480	-3.258E-01	 1.543E-01	-1.191E-01	-6.688E-05	 0.000E+00	 2.180E+00	-3.701E+00	 2.005E+00	 3.432E+00	-1.686E+01	 1.204E+01	 3.705E+00	 3.961E+00	 1.092E-01	 7.199E+00	-2.035E+00	 4.851E+00	-1.070E+01	 4.851E-03	 0.000E+00	 0.000E+00	 0.000E+00
  18.520	-3.177E-01	 1.111E-01	-1.104E-01	-9.205E-04	 0.000E+00	 2.115E+00	-3.684E+00	 1.953E+00	 3.431E+00	-1.689E+01	 1.133E+01	 3.691E+00	 3.644E+00	-7.733E-02	 7.147E+00	-2.025E+00	 4.837E+00	-1.064E+01	-3.437E-03	 0.000E+00	 0.000E+00	 0.000E+00
  18.560	-9.027E-02	 7.600E-02	-9.407E-02	-1.931E-03	 0.000E+00	 1.997E+00	-3.656E+00	 1.827E+00	 3.449E+00	-1.704E+01	 1.016E+01	 3.680E+00	 3.140E+00	-4.838E-01	 7.073E+00	-1.985E+00	 4.833E+00	-1.055E+01	-2.150E-02	 0.000E+00	 0.000E+00	 0.000E+00
  18.600	 1.361E-01	 2.945E-02	-7.110E-02	-2.339E-03	 0.000E+00	 1.871E+00	-3.621E+00	 1.710E+00	 3.470E+00	-1.723E+01	 8.980E+00	 3.650E+00	 2.650E+00	-9.858E-01	 6.978E+00	-1.937E+00	 4.823E+00	-1.044E+01	-4.381E-02	 0.000E+00	 0.000E+00	 0.000E+00
  18.640	 2.719E-01	-2.228E-02	-4.719E-02	-1.833E-03	 0.000E+00	 1.796E+00	-3.590E+00	 1.636E+00	 3.486E+00	-1.737E+01	 8.246E+00	 3.620E+00	 2.335E+00	-1.386E+00	 6.900E+00	-1.892E+00	 4.824E+00	-1.034E+01	-6.162E-02	 0.000E+00	 0.000E+00	 0.000E+00
  18.680	 2.802E-01	-6.175E-02	-2.084E-02	-6.003E-04	 0.000E+00	 1.792E+00	-3.572E+00	 1.632E+00	 3.483E+00	-1.737E+01	 8.185E+00	 3.596E+00	 2.299E+00	-1.519E+00	 6.861E+00	-1.871E+00	 4.833E+00	-1.029E+01	-6.749E-02	 0.000E+00	 0.000E+00	 0.000E+00
  18.720	 1.637E-01	-7.890E-02	 5.564E-03	 7.027E-04	 0.000E+00	 1.859E+00	-3.571E+00	 1.697E+00	 3.465E+00	-1.725E+01	 8.795E+00	 3.588E+00	 2.538E+00	-1.367E+00	 6.867E+00	-1.883E+00	 4.843E+00	-1.029E+01	-6.076E-02	 0.000E+00	 0.000E+00	 0.000E+00
  18.760	-1.865E-02	-7.701E-02	 3.142E-02	 1.508E-03	 0.000E+00	 1.968E+00	-3.583E+00	 1.809E+00	 3.437E+00	-1.706E+01	 9.826E+00	 3.590E+00	 2.957E+00	-1.039E+00	 6.904E+00	-1.919E+00	 4.853E+00	-1.033E+01	-4.616E-02	 0.000E+00	 0.000E+00	 0.000E+00
  18.800	-2.023E-01	-7.081E-02	 5.520E-02	 1.523E-03	 0.000E+00	 2.080E+00	-3.597E+00	 1.925E+00	 3.411E+00	-1.687E+01	 1.089E+01	 3.593E+00	 3.396E+00	-7.060E-01	 6.947E+00	-1.956E+00	 4.864E+00	-1.038E+01	-3.138E-02	 0.000E+00	 0.000E+00	 0.000E+00
  18.840	-3.274E-01	-7.124E-02	 7.346E-02	 8.718E-04	 0.000E+00	 2.157E+00	-3.603E+00	 2.005E+00	 3.394E+00	-1.675E+01	 1.162E+01	 3.588E+00	 3.699E+00	-5.147E-01	 6.971E+00	-1.978E+00	 4.872E+00	-1.041E+01	-2.288E-02	 0.000E+00	 0.000E+00	 0.000E+00
  18.880	-3.793E-01	-9.237E-02	 7.713E-02	-2.739E-05	 0.000E+00	 2.199E+00	-3.600E+00	 2.045E+00	 3.388E+00	-1.673E+01	 1.183E+01	 3.584E+00	 3.751E+00	-5.208E-01	 6.964E+00	-1.980E+00	 4.874E+00	-1.040E+01	-2.314E-02	 0.000E+00	 0.000E+00	 0.000E+00
  18.920	-2.336E-01	-8.796E-02	 8.774E-02	-8.292E-04	 0.000E+00	 2.131E+00	-3.590E+00	 1.982E+00	 3.398E+00	-1.680E+01	 1.136E+01	 3.572E+00	 3.582E+00	-6.975E-01	 6.933E+00	-1.962E+00	 4.868E+00	-1.037E+01	-3.100E-02	 0.000E+00	 0.000E+00	 0.000E+00
  18.960	-8.778E-02	-9.445E-02	 8.258E-02	-1.329E-03	 0.000E+00	 2.041E+00	-3.575E+00	 1.897E+00	 3.415E+00	-1.693E+01	 1.053E+01	 3.569E+00	 3.240E+00	-9.814E-01	 6.880E+00	-1.942E+00	 4.848E+00	-1.031E+01	-4.362E-02	 0.000E+00	 0.000E+00	 0.000E+00
  19.000	 6.868E-02	-1.029E-01	 6.897E-02	-1.444E-03	 0.000E+00	 1.949E+00	-3.560E+00	 1.801E+00	 3.435E+00	-1.707E+01	 9.643E+00	 3.566E+00	 2.863E+00	-1.292E+00	 6.828E+00	-1.912E+00	 4.833E+00	-1.026E+01	-5.743E-02	 0.000E+00	 0.000E+00	 0.000E+00
  19.040	 1.835E-01	-1.041E-01	 5.203E-02	-1.042E-03	 0.000E+00	 1.881E+00	-3.552E+00	 1.735E+00	 3.451E+00	-1.718E+01	 9.002E+00	 3.564E+00	 2.597E+00	-1.519E+00	 6.788E+00	-1.898E+00	 4.811E+00	-1.022E+01	-6.751E-02	 0.000E+00	 0.000E+00	 0.000E+00
  19.080	 2.223E-01	-8.779E-02	 3.146E-02	-2.544E-04	 0.000E+00	 1.861E+00	-3.556E+00	 1.717E+00	 3.460E+00	-1.724E+01	 8.824E+00	 3.576E+00	 2.528E+00	-1.577E+00	 6.783E+00	-1.906E+00	 4.791E+00	-1.023E+01	-7.008E-02	 0.000E+00	 0.000E+00	 0.000E+00
  19.120	 1.700E-01	-5.689E-02	 9.348E-03	 6.132E-04	 0.000E+00	 1.893E+00	-3.573E+00	 1.753E+00	 3.460E+00	-1.722E+01	 9.146E+00	 3.595E+00	 2.668E+00	-1.447E+00	 6.814E+00	-1.937E+00	 4.776E+00	-1.028E+01	-6.430E-02	 0.000E+00	 0.000E+00	 0.000E+00
  19.160	 4.862E-02	-1.869E-02	-1.346E-02	 1.245E-03	 0.000E+00	 1.965E+00	-3.597E+00	 1.827E+00	 3.450E+00	-1.712E+01	 9.828E+00	 3.616E+00	 2.952E+00	-1.180E+00	 6.870E+00	-1.984E+00	 4.763E+00	-1.036E+01	-5.245E-02	 0.000E+00	 0.000E+00	 0.000E+00
  19.200	-9.004E-02	 2.081E-02	-3.550E-02	 1.412E-03	 0.000E+00	 2.048E+00	-3.623E+00	 1.910E+00	 3.438E+00	-1.700E+01	 1.061E+01	 3.636E+00	 3.272E+00	-8.754E-01	 6.933E+00	-2.037E+00	 4.751E+00	-1.045E+01	-3.891E-02	 0.000E+00	 0.000E+00	 0.000E+00
  19.240	-1.956E-01	 5.680E-02	-5.631E-02	 1.048E-03	 0.000E+00	 2.112E+00	-3.645E+00	 1.975E+00	 3.430E+00	-1.693E+01	 1.120E+01	 3.655E+00	 3.514E+00	-6.475E-01	 6.982E+00	-2.083E+00	 4.737E+00	-1.052E+01	-2.878E-02	 0.000E+00	 0.000E+00	 0.000E+00
  19.280	-2.295E-01	 8.238E-02	-7.510E-02	 3.680E-04	 0.000E+00	 2.135E+00	-3.659E+00	 2.000E+00	 3.431E+00	-1.692E+01	 1.142E+01	 3.668E+00	 3.599E+00	-5.672E-01	 7.004E+00	-2.112E+00	 4.719E+00	-1.056E+01	-2.521E-02	 0.000E+00	 0.000E+00	 0.000E+00
  19.320	-1.819E-01	 9.437E-02	-9.121E-02	-3.632E-04	 0.000E+00	 2.114E+00	-3.661E+00	 1.980E+00	 3.439E+00	-1.697E+01	 1.121E+01	 3.673E+00	 3.509E+00	-6.451E-01	 6.993E+00	-2.118E+00	 4.700E+00	-1.056E+01	-2.867E-02	 0.000E+00	 0.000E+00	 0.000E+00
  19.360	-8.069E-02	 9.455E-02	-1.039E-01	-9.004E-04	 0.000E+00	 2.060E+00	-3.654E+00	 1.927E+00	 3.453E+00	-1.707E+01	 1.068E+01	 3.673E+00	 3.285E+00	-8.387E-01	 6.958E+00	-2.106E+00	 4.682E+00	-1.053E+01	-3.728E-02	 0.000E+00	 0.000E+00	 0.000E+00
  19.400	 3.136E-02	 8.693E-02	-1.121E-01	-1.087E-03	 0.000E+00	 1.995E+00	-3.643E+00	 1.864E+00	 3.468E+00	-1.718E+01	 1.005E+01	 3.669E+00	 3.017E+00	-1.073E+00	 6.911E+00	-2.087E+00	 4.665E+00	-1.048E+01	-4.770E-02	 0.000E+00	 0.000E+00	 0.000E+00
  19.440	 1.166E-01	 7.557E-02	-1.149E-01	-8.974E-04	 0.000E+00	 1.946E+00	-3.633E+00	 1.814E+00	 3.479E+00	-1.726E+01	 9.562E+00	 3.664E+00	 2.804E+00	-1.267E+00	 6.868E+00	-2.070E+00	 4.652E+00	-1.044E+01	-5.632E-02	 0.000E+00	 0.000E+00	 0.000E+00
  19.480	 1.421E-01	 6.347E-02	-1.118E-01	-4.386E-04	 0.000E+00	 1.926E+00	-3.626E+00	 1.797E+00	 3.482E+00	-1.729E+01	 9.384E+00	 3.658E+00	 2.722E+00	-1.362E+00	 6.840E+00	-2.064E+00	 4.643E+00	-1.041E+01	-6.053E-02	 0.000E+00	 0.000E+00	 0.000E+00
  19.520	 9.285E-02	 5.996E-02	-1.027E-01	 1.173E-04	 0.000E+00	 1.943E+00	-3.627E+00	 1.796E+00	 3.479E+00	-1.727E+01	 9.545E+00	 3.659E+00	 2.796E+00	-1.339E+00	 6.845E+00	-2.064E+00	 4.652E+00	-1.041E+01	-5.949E-02	 0.000E+00	 0.000E+00	 0.000E+00
  19.560	 1.642E-02	 4.776E-02	-8.418E-02	 5.427E-04	 0.000E+00	 2.001E+00	-3.627E+00	 1.874E+00	 3.464E+00	-1.717E+01	 1.005E+01	 3.645E+00	 2.980E+00	-1.220E+00	 6.847E+00	-2.086E+00	 4.647E+00	-1.042E+01	-5.423E-02	 0.000E+00	 0.000E+00	 0.000E+00
  19.600	-8.473E-02	 3.872E-02	-6.732E-02	 6.859E-04	 0.000E+00	 2.072E+00	-3.632E+00	 1.940E+00	 3.450E+00	-1.708E+01	 1.065E+01	 3.645E+00	 3.211E+00	-1.073E+00	 6.866E+00	-2.112E+00	 4.652E+00	-1.044E+01	-4.769E-02	 0.000E+00	 0.000E+00	 0.000E+00
  19.640	-1.574E-01	 2.912E-02	-4.393E-02	 5.374E-04	 0.000E+00	 2.123E+00	-3.633E+00	 1.998E+00	 3.435E+00	-1.698E+01	 1.114E+01	 3.636E+00	 3.412E+00	-9.542E-01	 6.878E+00	-2.127E+00	 4.660E+00	-1.046E+01	-4.241E-02	 0.000E+00	 0.000E+00	 0.000E+00
  19.680	-1.725E-01	 1.569E-02	-2.096E-02	 9.941E-05	 0.000E+00	 2.150E+00	-3.629E+00	 2.026E+00	 3.427E+00	-1.694E+01	 1.138E+01	 3.627E+00	 3.505E+00	-9.298E-01	 6.872E+00	-2.130E+00	 4.668E+00	-1.045E+01	-4.133E-02	 0.000E+00	 0.000E+00	 0.000E+00
  19.720	-1.787E-01	-9.946E-03	 2.614E-04	-4.038E-04	 0.000E+00	 2.146E+00	-3.617E+00	 2.022E+00	 3.424E+00	-1.694E+01	 1.132E+01	 3.613E+00	 3.464E+00	-1.015E+00	 6.842E+00	-2.115E+00	 4.674E+00	-1.041E+01	-4.513E-02	 0.000E+00	 0.000E+00	 0.000E+00
  19.760	-1.168E-01	-3.862E-02	 1.937E-02	-8.034E-04	 0.000E+00	 2.114E+00	-3.600E+00	 1.988E+00	 3.426E+00	-1.697E+01	 1.099E+01	 3.594E+00	 3.315E+00	-1.187E+00	 6.793E+00	-2.088E+00	 4.675E+00	-1.034E+01	-5.274E-02	 0.000E+00	 0.000E+00	 0.000E+00
  19.800	-3.273E-02	-6.574E-02	 3.539E-02	-9.781E-04	 0.000E+00	 2.068E+00	-3.583E+00	 1.943E+00	 3.433E+00	-1.703E+01	 1.054E+01	 3.578E+00	 3.123E+00	-1.396E+00	 6.736E+00	-2.059E+00	 4.672E+00	-1.027E+01	-6.204E-02	 0.000E+00	 0.000E+00	 0.000E+00
  19.840	 2.721E-02	-8.937E-02	 4.637E-02	-8.304E-04	 0.000E+00	 2.031E+00	-3.568E+00	 1.906E+00	 3.439E+00	-1.709E+01	 1.016E+01	 3.569E+00	 2.957E+00	-1.576E+00	 6.689E+00	-2.033E+00	 4.670E+00	-1.022E+01	-7.006E-02	 0.000E+00	 0.000E+00	 0.000E+00
  19.880	 3.900E-02	-1.012E-01	 5.411E-02	-3.920E-04	 0.000E+00	 2.012E+00	-3.564E+00	 1.882E+00	 3.442E+00	-1.712E+01	 9.974E+00	 3.560E+00	 2.882E+00	-1.666E+00	 6.666E+00	-2.020E+00	 4.670E+00	-1.019E+01	-7.404E-02	 0.000E+00	 0.000E+00	 0.000E+00
  19.920	 9.195E-02	-9.828E-02	 6.241E-02	 6.704E-05	 0.000E+00	 2.009E+00	-3.562E+00	 1.897E+00	 3.439E+00	-1.710E+01	 1.002E+01	 3.560E+00	 2.912E+00	-1.656E+00	 6.661E+00	-2.026E+00	 4.664E+00	-1.019E+01	-7.362E-02	 0.000E+00	 0.000E+00	 0.000E+00
  19.960	 3.352E-02	-9.159E-02	 6.075E-02	 3.934E-04	 0.000E+00	 2.041E+00	-3.567E+00	 1.928E+00	 3.433E+00	-1.706E+01	 1.031E+01	 3.567E+00	 3.029E+00	-1.573E+00	 6.676E+00	-2.045E+00	 4.659E+00	-1.021E+01	-6.993E-02	 0.000E+00	 0.000E+00	 0.000E+00
  20.000	-4.797E-02	-8.052E-02	 5.581E-02	 5.918E-04	 0.000E+00	 2.086E+00	-3.577E+00	 1.970E+00	 3.425E+00	-1.700E+01	 1.072E+01	 3.571E+00	 3.187E+00	-1.446E+00	 6.706E+00	-2.067E+00	 4.660E+00	-1.025E+01	-6.426E-02	 0.000E+00	 0.000E+00	 0.000E+00
