
These predictions were generated by FAST (v7.01.00a-bjj, 16-Feb-2012) on 22-Feb-2012 at 09:18:24.
The aerodynamic calculations were made by AeroDyn (v13.00.01a-bjj, 16-Feb-2012).

 FAST certification Test #10: UAE Phase VI (upwind) with no DOFs in a ramped wind.

Time	RootFxc1	RootFyc1	RootFzc1	RootFxc2	RootFyc2	RootFzc2	RootMOoP1	RootMIP1	RootMzc1	RotTorq	RotThrust	RotPwr	RotCq	RotCp	RotCt	LSSGagMya	LSSGagMza	HSShftCp	HSShftCq	YawBrMxp	YawBrMyp
(s)	(kN)	(kN)	(kN)	(kN)	(kN)	(kN)	(kN·m)	(kN·m)	(kN·m)	(kN·m)	(kN)	(kW)	(-)	(-)	(-)	(kN·m)	(kN·m)	(-)	(-)	(kN·m)	(kN·m)
   5.000	 3.577E-01	-1.490E-02	 6.825E+00	 3.577E-01	-7.765E-02	 8.025E+00	 1.101E+00	 6.787E-02	-1.659E-02	 2.828E-01	 7.154E-01	 2.129E+00	 4.544E-02	 3.441E-01	 5.781E-01	-1.702E+00	-8.906E-02	 3.441E-01	 1.808E-03	 2.828E-01	-7.465E+00
   5.100	 3.723E-01	-4.371E-01	 6.966E+00	 3.723E-01	 3.374E-01	 7.884E+00	 1.143E+00	 7.912E-01	-1.678E-02	 3.039E-01	 7.446E-01	 2.288E+00	 4.694E-02	 3.485E-01	 5.783E-01	-1.303E+00	 1.099E+00	 3.485E-01	 1.868E-03	 3.039E-01	-7.445E+00
   5.200	 3.865E-01	-6.500E-01	 7.355E+00	 3.861E-01	 5.431E-01	 7.495E+00	 1.183E+00	 1.157E+00	-1.696E-02	 3.249E-01	 7.725E-01	 2.446E+00	 4.827E-02	 3.515E-01	 5.772E-01	-1.974E-01	 1.693E+00	 3.515E-01	 1.921E-03	 3.249E-01	-7.426E+00
   5.300	 4.009E-01	-5.406E-01	 7.782E+00	 4.009E-01	 4.259E-01	 7.068E+00	 1.224E+00	 9.736E-01	-1.715E-02	 3.475E-01	 8.018E-01	 2.616E+00	 4.969E-02	 3.550E-01	 5.766E-01	 1.012E+00	 1.372E+00	 3.550E-01	 1.977E-03	 3.475E-01	-7.405E+00
   5.400	 4.151E-01	-1.701E-01	 8.016E+00	 4.151E-01	 4.751E-02	 6.834E+00	 1.264E+00	 3.442E-01	-1.735E-02	 3.701E-01	 8.302E-01	 2.786E+00	 5.098E-02	 3.575E-01	 5.752E-01	 1.677E+00	 3.087E-01	 3.575E-01	 2.029E-03	 3.701E-01	-7.386E+00
   5.500	 4.298E-01	 2.591E-01	 7.930E+00	 4.298E-01	-3.899E-01	 6.920E+00	 1.306E+00	-3.850E-01	-1.754E-02	 3.940E-01	 8.596E-01	 2.967E+00	 5.233E-02	 3.603E-01	 5.741E-01	 1.434E+00	-9.210E-01	 3.603E-01	 2.082E-03	 3.940E-01	-7.366E+00
   5.600	 4.454E-01	 5.126E-01	 7.572E+00	 4.455E-01	-6.522E-01	 7.278E+00	 1.351E+00	-8.139E-01	-1.775E-02	 4.202E-01	 8.909E-01	 3.164E+00	 5.382E-02	 3.639E-01	 5.739E-01	 4.166E-01	-1.653E+00	 3.639E-01	 2.142E-03	 4.202E-01	-7.344E+00
   5.700	 4.597E-01	 4.513E-01	 7.134E+00	 4.596E-01	-5.995E-01	 7.716E+00	 1.390E+00	-7.063E-01	-1.794E-02	 4.445E-01	 9.193E-01	 3.347E+00	 5.496E-02	 3.651E-01	 5.716E-01	-8.258E-01	-1.491E+00	 3.651E-01	 2.187E-03	 4.445E-01	-7.324E+00
   5.800	 4.746E-01	 1.058E-01	 6.853E+00	 4.743E-01	-2.629E-01	 7.997E+00	 1.432E+00	-1.132E-01	-1.815E-02	 4.703E-01	 9.488E-01	 3.541E+00	 5.616E-02	 3.666E-01	 5.698E-01	-1.621E+00	-5.232E-01	 3.666E-01	 2.235E-03	 4.703E-01	-7.302E+00
   5.900	 4.898E-01	-3.396E-01	 6.882E+00	 4.897E-01	 1.731E-01	 7.968E+00	 1.475E+00	 6.504E-01	-1.835E-02	 4.978E-01	 9.795E-01	 3.748E+00	 5.744E-02	 3.687E-01	 5.685E-01	-1.541E+00	 7.276E-01	 3.687E-01	 2.286E-03	 4.978E-01	-7.282E+00
   6.000	 5.051E-01	-6.466E-01	 7.204E+00	 5.052E-01	 4.704E-01	 7.646E+00	 1.519E+00	 1.178E+00	-1.848E-02	 5.262E-01	 1.010E+00	 3.962E+00	 5.872E-02	 3.705E-01	 5.670E-01	-6.276E-01	 1.585E+00	 3.705E-01	 2.336E-03	 5.262E-01	-7.261E+00
   6.100	 5.195E-01	-6.515E-01	 7.646E+00	 5.196E-01	 4.658E-01	 7.204E+00	 1.559E+00	 1.190E+00	-1.849E-02	 5.532E-01	 1.039E+00	 4.165E+00	 5.972E-02	 3.707E-01	 5.641E-01	 6.259E-01	 1.585E+00	 3.707E-01	 2.377E-03	 5.532E-01	-7.241E+00
   6.200	 5.359E-01	-3.549E-01	 7.968E+00	 5.353E-01	 1.589E-01	 6.882E+00	 1.607E+00	 6.881E-01	-1.847E-02	 5.839E-01	 1.071E+00	 4.396E+00	 6.102E-02	 3.727E-01	 5.630E-01	 1.544E+00	 7.289E-01	 3.727E-01	 2.428E-03	 5.838E-01	-7.222E+00
   6.300	 5.498E-01	 8.097E-02	 7.997E+00	 5.499E-01	-2.868E-01	 6.853E+00	 1.645E+00	-5.215E-02	-1.835E-02	 6.122E-01	 1.100E+00	 4.610E+00	 6.196E-02	 3.724E-01	 5.598E-01	 1.622E+00	-5.218E-01	 3.724E-01	 2.466E-03	 6.122E-01	-7.199E+00
   6.400	 5.653E-01	 4.170E-01	 7.717E+00	 5.652E-01	-6.333E-01	 7.134E+00	 1.690E+00	-6.214E-01	-1.822E-02	 6.429E-01	 1.131E+00	 4.841E+00	 6.305E-02	 3.731E-01	 5.576E-01	 8.276E-01	-1.490E+00	 3.731E-01	 2.509E-03	 6.429E-01	-7.178E+00
   6.500	 5.803E-01	 4.691E-01	 7.279E+00	 5.804E-01	-6.960E-01	 7.571E+00	 1.733E+00	-7.061E-01	-1.805E-02	 6.739E-01	 1.161E+00	 5.074E+00	 6.408E-02	 3.733E-01	 5.550E-01	-4.156E-01	-1.653E+00	 3.733E-01	 2.550E-03	 6.739E-01	-7.157E+00
   6.600	 5.955E-01	 2.061E-01	 6.920E+00	 5.955E-01	-4.438E-01	 7.930E+00	 1.776E+00	-2.530E-01	-1.786E-02	 7.057E-01	 1.191E+00	 5.313E+00	 6.508E-02	 3.734E-01	 5.523E-01	-1.434E+00	-9.222E-01	 3.734E-01	 2.590E-03	 7.057E-01	-7.136E+00
   6.700	 6.100E-01	-2.326E-01	 6.834E+00	 6.100E-01	-1.604E-02	 8.016E+00	 1.816E+00	 4.996E-01	-1.765E-02	 7.370E-01	 1.220E+00	 5.549E+00	 6.595E-02	 3.727E-01	 5.490E-01	-1.677E+00	 3.073E-01	 3.727E-01	 2.624E-03	 7.370E-01	-7.116E+00
   6.800	 6.236E-01	-6.125E-01	 7.068E+00	 6.236E-01	 3.534E-01	 7.782E+00	 1.855E+00	 1.152E+00	-1.741E-02	 7.675E-01	 1.247E+00	 5.779E+00	 6.668E-02	 3.713E-01	 5.449E-01	-1.013E+00	 1.371E+00	 3.713E-01	 2.653E-03	 7.675E-01	-7.097E+00
   6.900	 6.375E-01	-7.314E-01	 7.495E+00	 6.376E-01	 4.617E-01	 7.355E+00	 1.897E+00	 1.360E+00	-1.718E-02	 7.997E-01	 1.275E+00	 6.022E+00	 6.748E-02	 3.703E-01	 5.411E-01	 1.977E-01	 1.693E+00	 3.703E-01	 2.685E-03	 7.997E-01	-7.078E+00
   7.000	 6.491E-01	-5.274E-01	 7.884E+00	 6.491E-01	 2.479E-01	 6.966E+00	 1.930E+00	 1.015E+00	-1.691E-02	 8.282E-01	 1.298E+00	 6.236E+00	 6.790E-02	 3.673E-01	 5.352E-01	 1.302E+00	 1.100E+00	 3.673E-01	 2.702E-03	 8.282E-01	-7.062E+00
   7.100	 6.607E-01	-1.139E-01	 8.025E+00	 6.606E-01	-1.756E-01	 6.825E+00	 1.964E+00	 3.137E-01	-1.664E-02	 8.577E-01	 1.321E+00	 6.458E+00	 6.835E-02	 3.645E-01	 5.296E-01	 1.703E+00	-8.764E-02	 3.645E-01	 2.720E-03	 8.577E-01	-7.046E+00
   7.200	 6.717E-01	 2.830E-01	 7.842E+00	 6.717E-01	-5.823E-01	 7.008E+00	 1.996E+00	-3.596E-01	-1.636E-02	 8.868E-01	 1.343E+00	 6.677E+00	 6.872E-02	 3.614E-01	 5.235E-01	 1.182E+00	-1.228E+00	 3.614E-01	 2.734E-03	 8.868E-01	-7.031E+00
   7.300	 6.834E-01	 4.458E-01	 7.433E+00	 6.834E-01	-7.554E-01	 7.417E+00	 2.031E+00	-6.329E-01	-1.608E-02	 9.176E-01	 1.367E+00	 6.909E+00	 6.917E-02	 3.588E-01	 5.181E-01	 2.298E-02	-1.704E+00	 3.588E-01	 2.752E-03	 9.176E-01	-7.015E+00
   7.400	 6.935E-01	 2.841E-01	 7.020E+00	 6.935E-01	-6.035E-01	 7.830E+00	 2.061E+00	-3.531E-01	-1.577E-02	 9.464E-01	 1.387E+00	 7.126E+00	 6.943E-02	 3.552E-01	 5.117E-01	-1.149E+00	-1.259E+00	 3.552E-01	 2.763E-03	 9.464E-01	-7.001E+00
   7.500	 7.044E-01	-1.179E-01	 6.826E+00	 7.044E-01	-2.119E-01	 8.024E+00	 2.094E+00	 3.373E-01	-1.548E-02	 9.777E-01	 1.409E+00	 7.361E+00	 6.982E-02	 3.525E-01	 5.060E-01	-1.699E+00	-1.335E-01	 3.525E-01	 2.778E-03	 9.777E-01	-6.985E+00
   7.600	 7.130E-01	-5.447E-01	 6.956E+00	 7.130E-01	 2.055E-01	 7.894E+00	 2.119E+00	 1.069E+00	-1.517E-02	 1.005E+00	 1.426E+00	 7.565E+00	 6.988E-02	 3.482E-01	 4.988E-01	-1.331E+00	 1.065E+00	 3.482E-01	 2.781E-03	 1.005E+00	-6.974E+00
   7.700	 7.229E-01	-7.692E-01	 7.339E+00	 7.229E-01	 4.197E-01	 7.511E+00	 2.150E+00	 1.457E+00	-1.488E-02	 1.036E+00	 1.446E+00	 7.798E+00	 7.017E-02	 3.451E-01	 4.926E-01	-2.435E-01	 1.687E+00	 3.451E-01	 2.792E-03	 1.036E+00	-6.960E+00
   7.800	 7.320E-01	-6.721E-01	 7.769E+00	 7.320E-01	 3.128E-01	 7.081E+00	 2.179E+00	 1.295E+00	-1.462E-02	 1.065E+00	 1.464E+00	 8.021E+00	 7.034E-02	 3.415E-01	 4.861E-01	 9.760E-01	 1.398E+00	 3.415E-01	 2.799E-03	 1.065E+00	-6.947E+00
   7.900	 7.392E-01	-3.082E-01	 8.013E+00	 7.392E-01	-5.984E-02	 6.837E+00	 2.199E+00	 6.778E-01	-1.440E-02	 1.091E+00	 1.478E+00	 8.212E+00	 7.020E-02	 3.365E-01	 4.785E-01	 1.668E+00	 3.524E-01	 3.365E-01	 2.794E-03	 1.091E+00	-6.937E+00
   8.000	 7.473E-01	 1.226E-01	 7.939E+00	 7.473E-01	-4.998E-01	 6.911E+00	 2.223E+00	-5.354E-02	-1.422E-02	 1.118E+00	 1.495E+00	 8.418E+00	 7.018E-02	 3.322E-01	 4.718E-01	 1.458E+00	-8.832E-01	 3.322E-01	 2.793E-03	 1.118E+00	-6.926E+00
   8.100	 7.556E-01	 3.851E-01	 7.587E+00	 7.556E-01	-7.716E-01	 7.263E+00	 2.247E+00	-4.975E-01	-1.411E-02	 1.146E+00	 1.511E+00	 8.627E+00	 7.015E-02	 3.280E-01	 4.653E-01	 4.599E-01	-1.641E+00	 3.280E-01	 2.792E-03	 1.146E+00	-6.915E+00
   8.200	 7.637E-01	 3.350E-01	 7.148E+00	 7.637E-01	-7.307E-01	 7.702E+00	 2.269E+00	-4.084E-01	-1.403E-02	 1.173E+00	 1.527E+00	 8.830E+00	 7.006E-02	 3.235E-01	 4.589E-01	-7.868E-01	-1.512E+00	 3.235E-01	 2.788E-03	 1.173E+00	-6.903E+00
   8.300	 7.720E-01	-3.199E-03	 6.858E+00	 7.720E-01	-4.016E-01	 7.992E+00	 2.293E+00	 1.725E-01	-1.401E-02	 1.200E+00	 1.544E+00	 9.034E+00	 6.997E-02	 3.192E-01	 4.528E-01	-1.608E+00	-5.654E-01	 3.192E-01	 2.784E-03	 1.200E+00	-6.892E+00
   8.400	 7.794E-01	-4.488E-01	 6.875E+00	 7.794E-01	 3.539E-02	 7.975E+00	 2.314E+00	 9.366E-01	-1.403E-02	 1.226E+00	 1.559E+00	 9.228E+00	 6.977E-02	 3.145E-01	 4.463E-01	-1.560E+00	 6.870E-01	 3.145E-01	 2.776E-03	 1.226E+00	-6.882E+00
   8.500	 7.862E-01	-7.633E-01	 7.189E+00	 7.862E-01	 3.417E-01	 7.661E+00	 2.332E+00	 1.477E+00	-1.407E-02	 1.250E+00	 1.572E+00	 9.412E+00	 6.950E-02	 3.096E-01	 4.396E-01	-6.685E-01	 1.568E+00	 3.096E-01	 2.766E-03	 1.250E+00	-6.872E+00
   8.600	 7.926E-01	-7.789E-01	 7.631E+00	 7.926E-01	 3.495E-01	 7.219E+00	 2.351E+00	 1.507E+00	-1.414E-02	 1.274E+00	 1.585E+00	 9.592E+00	 6.919E-02	 3.047E-01	 4.330E-01	 5.844E-01	 1.601E+00	 3.047E-01	 2.753E-03	 1.274E+00	-6.863E+00
   8.700	 7.979E-01	-4.892E-01	 7.961E+00	 7.979E-01	 5.258E-02	 6.889E+00	 2.365E+00	 1.016E+00	-1.419E-02	 1.295E+00	 1.596E+00	 9.753E+00	 6.875E-02	 2.992E-01	 4.259E-01	 1.521E+00	 7.688E-01	 2.992E-01	 2.736E-03	 1.295E+00	-6.856E+00
   8.800	 8.031E-01	-5.309E-02	 8.001E+00	 8.031E-01	-3.908E-01	 6.849E+00	 2.379E+00	 2.745E-01	-1.424E-02	 1.317E+00	 1.606E+00	 9.917E+00	 6.832E-02	 2.940E-01	 4.190E-01	 1.636E+00	-4.792E-01	 2.940E-01	 2.719E-03	 1.317E+00	-6.849E+00
   8.900	 8.080E-01	 2.919E-01	 7.730E+00	 8.080E-01	-7.428E-01	 7.120E+00	 2.393E+00	-3.111E-01	-1.426E-02	 1.338E+00	 1.616E+00	 1.008E+01	 6.787E-02	 2.888E-01	 4.122E-01	 8.659E-01	-1.468E+00	 2.888E-01	 2.701E-03	 1.338E+00	-6.842E+00
   9.000	 8.126E-01	 3.572E-01	 7.294E+00	 8.126E-01	-8.151E-01	 7.556E+00	 2.406E+00	-4.195E-01	-1.429E-02	 1.359E+00	 1.625E+00	 1.023E+01	 6.741E-02	 2.836E-01	 4.054E-01	-3.721E-01	-1.663E+00	 2.836E-01	 2.682E-03	 1.359E+00	-6.836E+00
   9.100	 8.170E-01	 1.058E-01	 6.929E+00	 8.170E-01	-5.703E-01	 7.921E+00	 2.418E+00	 1.233E-02	-1.436E-02	 1.379E+00	 1.634E+00	 1.038E+01	 6.690E-02	 2.784E-01	 3.986E-01	-1.409E+00	-9.594E-01	 2.784E-01	 2.662E-03	 1.379E+00	-6.830E+00
   9.200	 8.214E-01	-3.282E-01	 6.832E+00	 8.214E-01	-1.426E-01	 8.018E+00	 2.431E+00	 7.558E-01	-1.445E-02	 1.398E+00	 1.643E+00	 1.053E+01	 6.636E-02	 2.731E-01	 3.921E-01	-1.684E+00	 2.634E-01	 2.731E-01	 2.641E-03	 1.398E+00	-6.823E+00
   9.300	 8.247E-01	-7.116E-01	 7.055E+00	 8.247E-01	 2.354E-01	 7.795E+00	 2.440E+00	 1.413E+00	-1.456E-02	 1.415E+00	 1.649E+00	 1.065E+01	 6.572E-02	 2.676E-01	 3.853E-01	-1.049E+00	 1.344E+00	 2.676E-01	 2.615E-03	 1.415E+00	-6.819E+00
   9.400	 8.276E-01	-8.385E-01	 7.479E+00	 8.276E-01	 3.578E-01	 7.371E+00	 2.448E+00	 1.632E+00	-1.469E-02	 1.430E+00	 1.655E+00	 1.076E+01	 6.500E-02	 2.618E-01	 3.784E-01	 1.536E-01	 1.698E+00	 2.618E-01	 2.586E-03	 1.430E+00	-6.815E+00
   9.500	 8.307E-01	-6.416E-01	 7.874E+00	 8.307E-01	 1.574E-01	 6.976E+00	 2.458E+00	 1.298E+00	-1.491E-02	 1.443E+00	 1.661E+00	 1.086E+01	 6.421E-02	 2.559E-01	 3.719E-01	 1.273E+00	 1.134E+00	 2.559E-01	 2.555E-03	 1.443E+00	-6.811E+00
   9.600	 8.334E-01	-2.259E-01	 8.025E+00	 8.334E-01	-2.562E-01	 6.825E+00	 2.464E+00	 5.915E-01	-1.590E-02	 1.443E+00	 1.667E+00	 1.087E+01	 6.290E-02	 2.481E-01	 3.654E-01	 1.704E+00	-4.312E-02	 2.481E-01	 2.503E-03	 1.443E+00	-6.807E+00
   9.700	 8.366E-01	 1.824E-01	 7.853E+00	 8.366E-01	-6.609E-01	 6.997E+00	 2.473E+00	-1.020E-01	-1.722E-02	 1.442E+00	 1.673E+00	 1.086E+01	 6.156E-02	 2.403E-01	 3.593E-01	 1.214E+00	-1.197E+00	 2.403E-01	 2.450E-03	 1.442E+00	-6.802E+00
   9.800	 8.397E-01	 3.640E-01	 7.449E+00	 8.394E-01	-8.363E-01	 7.401E+00	 2.481E+00	-4.088E-01	-1.875E-02	 1.434E+00	 1.679E+00	 1.080E+01	 5.999E-02	 2.318E-01	 3.532E-01	 6.891E-02	-1.703E+00	 2.318E-01	 2.387E-03	 1.434E+00	-6.798E+00
   9.900	 8.429E-01	 2.250E-01	 7.032E+00	 8.436E-01	-6.836E-01	 7.818E+00	 2.488E+00	-1.685E-01	-2.096E-02	 1.412E+00	 1.686E+00	 1.063E+01	 5.788E-02	 2.214E-01	 3.476E-01	-1.119E+00	-1.289E+00	 2.214E-01	 2.303E-03	 1.412E+00	-6.796E+00
  10.000	 8.465E-01	-1.591E-01	 6.828E+00	 8.463E-01	-2.843E-01	 8.022E+00	 2.498E+00	 4.907E-01	-2.306E-02	 1.386E+00	 1.693E+00	 1.044E+01	 5.570E-02	 2.109E-01	 3.420E-01	-1.694E+00	-1.778E-01	 2.109E-01	 2.216E-03	 1.387E+00	-6.788E+00
  10.100	 8.490E-01	-5.803E-01	 6.946E+00	 8.493E-01	 1.451E-01	 7.904E+00	 2.503E+00	 1.212E+00	-2.459E-02	 1.374E+00	 1.698E+00	 1.034E+01	 5.410E-02	 2.028E-01	 3.363E-01	-1.360E+00	 1.029E+00	 2.028E-01	 2.153E-03	 1.374E+00	-6.786E+00
  10.200	 8.521E-01	-8.053E-01	 7.324E+00	 8.518E-01	 3.788E-01	 7.526E+00	 2.511E+00	 1.598E+00	-2.576E-02	 1.359E+00	 1.704E+00	 1.023E+01	 5.247E-02	 1.948E-01	 3.309E-01	-2.862E-01	 1.680E+00	 1.948E-01	 2.088E-03	 1.359E+00	-6.781E+00
  10.300	 8.548E-01	-7.109E-01	 7.756E+00	 8.546E-01	 2.917E-01	 7.094E+00	 2.518E+00	 1.438E+00	-2.680E-02	 1.346E+00	 1.709E+00	 1.013E+01	 5.097E-02	 1.874E-01	 3.255E-01	 9.401E-01	 1.423E+00	 1.874E-01	 2.028E-03	 1.346E+00	-6.778E+00
  10.400	 8.571E-01	-3.467E-01	 8.009E+00	 8.574E-01	-6.786E-02	 6.841E+00	 2.521E+00	 8.170E-01	-2.791E-02	 1.338E+00	 1.715E+00	 1.007E+01	 4.968E-02	 1.809E-01	 3.202E-01	 1.656E+00	 3.958E-01	 1.809E-01	 1.977E-03	 1.338E+00	-6.772E+00
  10.500	 8.601E-01	 9.025E-02	 7.947E+00	 8.601E-01	-5.051E-01	 6.903E+00	 2.528E+00	 7.106E-02	-2.881E-02	 1.337E+00	 1.720E+00	 1.007E+01	 4.873E-02	 1.757E-01	 3.152E-01	 1.480E+00	-8.448E-01	 1.757E-01	 1.939E-03	 1.337E+00	-6.770E+00
  10.600	 8.633E-01	 3.666E-01	 7.602E+00	 8.634E-01	-7.813E-01	 7.248E+00	 2.534E+00	-4.017E-01	-2.983E-02	 1.334E+00	 1.727E+00	 1.005E+01	 4.771E-02	 1.704E-01	 3.105E-01	 5.025E-01	-1.629E+00	 1.704E-01	 1.899E-03	 1.334E+00	-6.765E+00
  10.700	 8.671E-01	 3.324E-01	 7.162E+00	 8.669E-01	-7.473E-01	 7.688E+00	 2.543E+00	-3.441E-01	-3.090E-02	 1.333E+00	 1.734E+00	 1.004E+01	 4.677E-02	 1.655E-01	 3.060E-01	-7.458E-01	-1.532E+00	 1.655E-01	 1.861E-03	 1.333E+00	-6.760E+00
  10.800	 8.707E-01	 6.516E-03	 6.864E+00	 8.707E-01	-4.214E-01	 7.986E+00	 2.549E+00	 2.103E-01	-3.217E-02	 1.330E+00	 1.741E+00	 1.002E+01	 4.581E-02	 1.606E-01	 3.016E-01	-1.593E+00	-6.072E-01	 1.606E-01	 1.823E-03	 1.330E+00	-6.755E+00
  10.900	 8.756E-01	-4.356E-01	 6.869E+00	 8.756E-01	 1.963E-02	 7.981E+00	 2.558E+00	 9.632E-01	-3.351E-02	 1.329E+00	 1.751E+00	 1.001E+01	 4.494E-02	 1.561E-01	 2.978E-01	-1.577E+00	 6.460E-01	 1.561E-01	 1.788E-03	 1.329E+00	-6.749E+00
  11.000	 8.808E-01	-7.549E-01	 7.175E+00	 8.808E-01	 3.374E-01	 7.675E+00	 2.569E+00	 1.506E+00	-3.492E-02	 1.329E+00	 1.762E+00	 1.001E+01	 4.412E-02	 1.519E-01	 2.941E-01	-7.093E-01	 1.550E+00	 1.519E-01	 1.756E-03	 1.329E+00	-6.741E+00
  11.100	 8.851E-01	-7.786E-01	 7.616E+00	 8.851E-01	 3.603E-01	 7.234E+00	 2.575E+00	 1.544E+00	-3.635E-02	 1.326E+00	 1.770E+00	 9.980E+00	 4.322E-02	 1.474E-01	 2.903E-01	 5.423E-01	 1.616E+00	 1.474E-01	 1.720E-03	 1.326E+00	-6.735E+00
  11.200	 8.894E-01	-4.945E-01	 7.954E+00	 8.894E-01	 7.520E-02	 6.896E+00	 2.582E+00	 1.057E+00	-3.778E-02	 1.322E+00	 1.779E+00	 9.957E+00	 4.235E-02	 1.432E-01	 2.865E-01	 1.501E+00	 8.083E-01	 1.432E-01	 1.685E-03	 1.322E+00	-6.729E+00
  11.300	 8.947E-01	-5.660E-02	 8.006E+00	 8.947E-01	-3.641E-01	 6.844E+00	 2.590E+00	 3.067E-01	-3.920E-02	 1.320E+00	 1.789E+00	 9.938E+00	 4.152E-02	 1.391E-01	 2.831E-01	 1.648E+00	-4.363E-01	 1.391E-01	 1.652E-03	 1.320E+00	-6.722E+00
  11.400	 9.002E-01	 2.979E-01	 7.744E+00	 9.002E-01	-7.205E-01	 7.106E+00	 2.600E+00	-3.010E-01	-4.070E-02	 1.318E+00	 1.800E+00	 9.927E+00	 4.076E-02	 1.354E-01	 2.799E-01	 9.040E-01	-1.445E+00	 1.354E-01	 1.622E-03	 1.318E+00	-6.714E+00
  11.500	 9.056E-01	 3.771E-01	 7.309E+00	 9.056E-01	-8.017E-01	 7.541E+00	 2.609E+00	-4.390E-01	-4.219E-02	 1.317E+00	 1.811E+00	 9.915E+00	 4.000E-02	 1.317E-01	 2.767E-01	-3.285E-01	-1.673E+00	 1.317E-01	 1.592E-03	 1.317E+00	-6.707E+00
  11.600	 9.114E-01	 1.375E-01	 6.938E+00	 9.114E-01	-5.643E-01	 7.912E+00	 2.620E+00	-3.275E-02	-4.370E-02	 1.316E+00	 1.823E+00	 9.912E+00	 3.930E-02	 1.283E-01	 2.737E-01	-1.383E+00	-9.959E-01	 1.283E-01	 1.564E-03	 1.316E+00	-6.699E+00
  11.700	 9.173E-01	-2.920E-01	 6.829E+00	 9.173E-01	-1.375E-01	 8.021E+00	 2.630E+00	 6.973E-01	-4.507E-02	 1.316E+00	 1.835E+00	 9.912E+00	 3.863E-02	 1.250E-01	 2.707E-01	-1.690E+00	 2.193E-01	 1.250E-01	 1.537E-03	 1.316E+00	-6.691E+00
  11.800	 9.235E-01	-6.795E-01	 7.043E+00	 9.235E-01	 2.479E-01	 7.807E+00	 2.641E+00	 1.355E+00	-4.671E-02	 1.314E+00	 1.847E+00	 9.890E+00	 3.790E-02	 1.216E-01	 2.680E-01	-1.084E+00	 1.316E+00	 1.216E-01	 1.508E-03	 1.314E+00	-6.682E+00
  11.900	 9.292E-01	-8.162E-01	 7.463E+00	 9.292E-01	 3.826E-01	 7.387E+00	 2.651E+00	 1.584E+00	-4.833E-02	 1.310E+00	 1.858E+00	 9.862E+00	 3.716E-02	 1.182E-01	 2.651E-01	 1.092E-01	 1.701E+00	 1.182E-01	 1.479E-03	 1.310E+00	-6.674E+00
  12.000	 9.350E-01	-6.289E-01	 7.863E+00	 9.350E-01	 1.932E-01	 6.987E+00	 2.660E+00	 1.260E+00	-4.996E-02	 1.306E+00	 1.870E+00	 9.835E+00	 3.644E-02	 1.150E-01	 2.623E-01	 1.243E+00	 1.167E+00	 1.150E-01	 1.450E-03	 1.306E+00	-6.666E+00
  12.100	 9.406E-01	-2.194E-01	 8.026E+00	 9.406E-01	-2.184E-01	 6.824E+00	 2.669E+00	 5.575E-01	-5.159E-02	 1.302E+00	 1.881E+00	 9.806E+00	 3.573E-02	 1.118E-01	 2.596E-01	 1.705E+00	 1.417E-03	 1.118E-01	 1.422E-03	 1.302E+00	-6.659E+00
  12.200	 9.468E-01	 1.898E-01	 7.864E+00	 9.468E-01	-6.309E-01	 6.986E+00	 2.679E+00	-1.445E-01	-5.306E-02	 1.302E+00	 1.894E+00	 9.803E+00	 3.514E-02	 1.091E-01	 2.570E-01	 1.245E+00	-1.165E+00	 1.091E-01	 1.398E-03	 1.302E+00	-6.650E+00
  12.300	 9.536E-01	 3.773E-01	 7.464E+00	 9.536E-01	-8.214E-01	 7.386E+00	 2.691E+00	-4.689E-01	-5.470E-02	 1.300E+00	 1.907E+00	 9.785E+00	 3.451E-02	 1.062E-01	 2.547E-01	 1.120E-01	-1.701E+00	 1.062E-01	 1.373E-03	 1.300E+00	-6.641E+00
  12.400	 9.605E-01	 2.408E-01	 7.044E+00	 9.605E-01	-6.879E-01	 7.806E+00	 2.704E+00	-2.402E-01	-5.634E-02	 1.297E+00	 1.921E+00	 9.768E+00	 3.389E-02	 1.035E-01	 2.524E-01	-1.081E+00	-1.318E+00	 1.035E-01	 1.349E-03	 1.297E+00	-6.631E+00
  12.500	 9.672E-01	-1.468E-01	 6.830E+00	 9.672E-01	-3.033E-01	 8.021E+00	 2.715E+00	 4.165E-01	-5.800E-02	 1.295E+00	 1.934E+00	 9.747E+00	 3.328E-02	 1.008E-01	 2.501E-01	-1.690E+00	-2.221E-01	 1.008E-01	 1.324E-03	 1.295E+00	-6.622E+00
  12.600	 9.736E-01	-5.758E-01	 6.937E+00	 9.736E-01	 1.243E-01	 7.913E+00	 2.726E+00	 1.143E+00	-5.984E-02	 1.286E+00	 1.947E+00	 9.680E+00	 3.253E-02	 9.776E-02	 2.478E-01	-1.385E+00	 9.936E-01	 9.776E-02	 1.295E-03	 1.286E+00	-6.613E+00
  12.700	 9.811E-01	-8.166E-01	 7.308E+00	 9.811E-01	 3.617E-01	 7.542E+00	 2.739E+00	 1.549E+00	-6.147E-02	 1.284E+00	 1.962E+00	 9.665E+00	 3.197E-02	 9.532E-02	 2.458E-01	-3.313E-01	 1.672E+00	 9.532E-02	 1.272E-03	 1.284E+00	-6.603E+00
  12.800	 9.887E-01	-7.389E-01	 7.743E+00	 9.887E-01	 2.806E-01	 7.107E+00	 2.754E+00	 1.412E+00	-6.301E-02	 1.281E+00	 1.977E+00	 9.648E+00	 3.142E-02	 9.294E-02	 2.438E-01	 9.016E-01	 1.447E+00	 9.294E-02	 1.250E-03	 1.281E+00	-6.592E+00
  12.900	 9.962E-01	-3.851E-01	 8.005E+00	 9.962E-01	-7.570E-02	 6.845E+00	 2.768E+00	 8.031E-01	-6.446E-02	 1.277E+00	 1.992E+00	 9.617E+00	 3.083E-02	 9.051E-02	 2.419E-01	 1.647E+00	 4.391E-01	 9.051E-02	 1.227E-03	 1.277E+00	-6.582E+00
  13.000	 1.003E+00	 5.278E-02	 7.954E+00	 1.003E+00	-5.151E-01	 6.896E+00	 2.779E+00	 5.006E-02	-6.585E-02	 1.269E+00	 2.006E+00	 9.554E+00	 3.016E-02	 8.785E-02	 2.398E-01	 1.502E+00	-8.058E-01	 8.785E-02	 1.200E-03	 1.269E+00	-6.572E+00
  13.100	 1.010E+00	 3.381E-01	 7.617E+00	 1.010E+00	-8.001E-01	 7.233E+00	 2.791E+00	-4.448E-01	-6.742E-02	 1.252E+00	 2.020E+00	 9.429E+00	 2.931E-02	 8.473E-02	 2.378E-01	 5.450E-01	-1.615E+00	 8.473E-02	 1.167E-03	 1.252E+00	-6.562E+00
  13.200	 1.018E+00	 3.148E-01	 7.176E+00	 1.018E+00	-7.784E-01	 7.674E+00	 2.804E+00	-4.112E-01	-6.887E-02	 1.243E+00	 2.035E+00	 9.362E+00	 2.867E-02	 8.223E-02	 2.360E-01	-7.067E-01	-1.551E+00	 8.223E-02	 1.141E-03	 1.243E+00	-6.552E+00
  13.300	 1.025E+00	-4.546E-03	 6.870E+00	 1.025E+00	-4.617E-01	 7.980E+00	 2.819E+00	 1.282E-01	-7.026E-02	 1.238E+00	 2.051E+00	 9.320E+00	 2.811E-02	 8.003E-02	 2.342E-01	-1.576E+00	-6.486E-01	 8.003E-02	 1.119E-03	 1.238E+00	-6.541E+00
  13.400	 1.033E+00	-4.474E-01	 6.863E+00	 1.033E+00	-2.130E-02	 7.987E+00	 2.833E+00	 8.782E-01	-7.162E-02	 1.232E+00	 2.067E+00	 9.275E+00	 2.756E-02	 7.787E-02	 2.325E-01	-1.594E+00	 6.046E-01	 7.787E-02	 1.097E-03	 1.232E+00	-6.530E+00
  13.500	 1.041E+00	-7.745E-01	 7.161E+00	 1.041E+00	 3.044E-01	 7.689E+00	 2.849E+00	 1.429E+00	-7.319E-02	 1.221E+00	 2.083E+00	 9.192E+00	 2.691E-02	 7.548E-02	 2.309E-01	-7.495E-01	 1.531E+00	 7.548E-02	 1.071E-03	 1.221E+00	-6.519E+00
  13.600	 1.050E+00	-8.101E-01	 7.601E+00	 1.050E+00	 3.384E-01	 7.249E+00	 2.865E+00	 1.483E+00	-7.452E-02	 1.211E+00	 2.100E+00	 9.114E+00	 2.629E-02	 7.320E-02	 2.293E-01	 4.999E-01	 1.630E+00	 7.320E-02	 1.046E-03	 1.211E+00	-6.508E+00
  13.700	 1.058E+00	-5.351E-01	 7.946E+00	 1.058E+00	 6.199E-02	 6.904E+00	 2.879E+00	 1.007E+00	-7.578E-02	 1.199E+00	 2.115E+00	 9.025E+00	 2.566E-02	 7.091E-02	 2.277E-01	 1.479E+00	 8.473E-01	 7.091E-02	 1.021E-03	 1.199E+00	-6.496E+00
  13.800	 1.066E+00	-9.925E-02	 8.009E+00	 1.066E+00	-3.763E-01	 6.841E+00	 2.894E+00	 2.560E-01	-7.713E-02	 1.190E+00	 2.132E+00	 8.962E+00	 2.511E-02	 6.889E-02	 2.261E-01	 1.659E+00	-3.931E-01	 6.889E-02	 9.991E-04	 1.190E+00	-6.485E+00
  13.900	 1.074E+00	 2.622E-01	 7.757E+00	 1.074E+00	-7.392E-01	 7.093E+00	 2.907E+00	-3.683E-01	-7.861E-02	 1.178E+00	 2.147E+00	 8.872E+00	 2.450E-02	 6.674E-02	 2.245E-01	 9.415E-01	-1.421E+00	 6.674E-02	 9.749E-04	 1.178E+00	-6.475E+00
  14.000	 1.081E+00	 3.535E-01	 7.325E+00	 1.081E+00	-8.309E-01	 7.525E+00	 2.918E+00	-5.331E-01	-8.023E-02	 1.161E+00	 2.162E+00	 8.743E+00	 2.380E-02	 6.437E-02	 2.228E-01	-2.847E-01	-1.681E+00	 6.437E-02	 9.470E-04	 1.161E+00	-6.465E+00
  14.100	 1.088E+00	 1.243E-01	 6.947E+00	 1.088E+00	-6.027E-01	 7.903E+00	 2.931E+00	-1.504E-01	-8.170E-02	 1.146E+00	 2.177E+00	 8.632E+00	 2.316E-02	 6.221E-02	 2.212E-01	-1.357E+00	-1.032E+00	 6.221E-02	 9.218E-04	 1.146E+00	-6.454E+00
  14.200	 1.096E+00	-3.022E-01	 6.828E+00	 1.096E+00	-1.788E-01	 8.022E+00	 2.945E+00	 5.716E-01	-8.312E-02	 1.140E+00	 2.192E+00	 8.587E+00	 2.272E-02	 6.059E-02	 2.196E-01	-1.696E+00	 1.751E-01	 6.059E-02	 9.041E-04	 1.140E+00	-6.443E+00
  14.300	 1.104E+00	-6.954E-01	 7.031E+00	 1.104E+00	 2.117E-01	 7.819E+00	 2.961E+00	 1.237E+00	-8.454E-02	 1.136E+00	 2.208E+00	 8.553E+00	 2.232E-02	 5.909E-02	 2.182E-01	-1.118E+00	 1.287E+00	 5.909E-02	 8.880E-04	 1.136E+00	-6.432E+00
  14.400	 1.112E+00	-8.431E-01	 7.448E+00	 1.112E+00	 3.573E-01	 7.402E+00	 2.976E+00	 1.484E+00	-8.588E-02	 1.129E+00	 2.224E+00	 8.500E+00	 2.187E-02	 5.751E-02	 2.167E-01	 6.469E-02	 1.703E+00	 5.751E-02	 8.703E-04	 1.129E+00	-6.421E+00
  14.500	 1.119E+00	-6.659E-01	 7.852E+00	 1.119E+00	 1.789E-01	 6.998E+00	 2.990E+00	 1.175E+00	-8.712E-02	 1.118E+00	 2.239E+00	 8.421E+00	 2.137E-02	 5.580E-02	 2.151E-01	 1.212E+00	 1.199E+00	 5.580E-02	 8.503E-04	 1.118E+00	-6.411E+00
  14.600	 1.127E+00	-2.605E-01	 8.025E+00	 1.127E+00	-2.282E-01	 6.825E+00	 3.005E+00	 4.771E-01	-8.825E-02	 1.110E+00	 2.255E+00	 8.357E+00	 2.092E-02	 5.425E-02	 2.137E-01	 1.704E+00	 4.596E-02	 5.425E-02	 8.324E-04	 1.110E+00	-6.400E+00
  14.700	 1.134E+00	 1.537E-01	 7.874E+00	 1.134E+00	-6.438E-01	 6.976E+00	 3.018E+00	-2.368E-01	-8.979E-02	 1.099E+00	 2.269E+00	 8.275E+00	 2.043E-02	 5.263E-02	 2.121E-01	 1.275E+00	-1.132E+00	 5.263E-02	 8.130E-04	 1.099E+00	-6.390E+00
  14.800	 1.142E+00	 3.521E-01	 7.480E+00	 1.142E+00	-8.441E-01	 7.370E+00	 3.030E+00	-5.819E-01	-9.136E-02	 1.090E+00	 2.283E+00	 8.206E+00	 1.999E-02	 5.114E-02	 2.106E-01	 1.564E-01	-1.697E+00	 5.114E-02	 7.954E-04	 1.090E+00	-6.380E+00
  14.900	 1.149E+00	 2.266E-01	 7.056E+00	 1.149E+00	-7.216E-01	 7.794E+00	 3.044E+00	-3.733E-01	-9.281E-02	 1.085E+00	 2.299E+00	 8.172E+00	 1.964E-02	 4.991E-02	 2.092E-01	-1.047E+00	-1.346E+00	 4.991E-02	 7.815E-04	 1.085E+00	-6.370E+00
  15.000	 1.157E+00	-1.554E-01	 6.832E+00	 1.157E+00	-3.430E-01	 8.018E+00	 3.059E+00	 2.738E-01	-9.419E-02	 1.083E+00	 2.314E+00	 8.155E+00	 1.934E-02	 4.882E-02	 2.078E-01	-1.684E+00	-2.662E-01	 4.882E-02	 7.695E-04	 1.083E+00	-6.359E+00
  15.100	 1.164E+00	-5.878E-01	 6.928E+00	 1.164E+00	 8.667E-02	 7.922E+00	 3.072E+00	 1.006E+00	-9.553E-02	 1.078E+00	 2.329E+00	 8.116E+00	 1.899E-02	 4.762E-02	 2.063E-01	-1.411E+00	 9.570E-01	 4.762E-02	 7.557E-04	 1.078E+00	-6.349E+00
  15.200	 1.172E+00	-8.382E-01	 7.293E+00	 1.172E+00	 3.336E-01	 7.557E+00	 3.087E+00	 1.429E+00	-9.681E-02	 1.076E+00	 2.344E+00	 8.101E+00	 1.871E-02	 4.660E-02	 2.050E-01	-3.749E-01	 1.663E+00	 4.660E-02	 7.444E-04	 1.076E+00	-6.338E+00
  15.300	 1.180E+00	-7.720E-01	 7.729E+00	 1.180E+00	 2.637E-01	 7.121E+00	 3.101E+00	 1.311E+00	-9.811E-02	 1.074E+00	 2.359E+00	 8.087E+00	 1.843E-02	 4.561E-02	 2.036E-01	 8.635E-01	 1.470E+00	 4.561E-02	 7.334E-04	 1.074E+00	-6.328E+00
  15.400	 1.187E+00	-4.258E-01	 8.001E+00	 1.187E+00	-8.614E-02	 6.849E+00	 3.116E+00	 7.154E-01	-9.941E-02	 1.072E+00	 2.375E+00	 8.074E+00	 1.816E-02	 4.466E-02	 2.023E-01	 1.635E+00	 4.820E-01	 4.466E-02	 7.228E-04	 1.072E+00	-6.317E+00
  15.500	 1.195E+00	 1.214E-02	 7.962E+00	 1.195E+00	-5.279E-01	 6.889E+00	 3.130E+00	-3.601E-02	-1.008E-01	 1.072E+00	 2.390E+00	 8.074E+00	 1.793E-02	 4.380E-02	 2.009E-01	 1.523E+00	-7.663E-01	 4.380E-02	 7.135E-04	 1.072E+00	-6.307E+00
  15.600	 1.202E+00	 3.037E-01	 7.632E+00	 1.202E+00	-8.241E-01	 7.218E+00	 3.144E+00	-5.362E-01	-1.020E-01	 1.077E+00	 2.405E+00	 8.109E+00	 1.778E-02	 4.315E-02	 1.996E-01	 5.870E-01	-1.600E+00	 4.315E-02	 7.074E-04	 1.077E+00	-6.296E+00
  15.700	 1.209E+00	 2.907E-01	 7.190E+00	 1.209E+00	-8.151E-01	 7.660E+00	 3.158E+00	-5.164E-01	-1.032E-01	 1.081E+00	 2.419E+00	 8.137E+00	 1.761E-02	 4.248E-02	 1.982E-01	-6.659E-01	-1.569E+00	 4.248E-02	 7.009E-04	 1.081E+00	-6.287E+00
  15.800	 1.216E+00	-2.100E-02	 6.876E+00	 1.216E+00	-5.070E-01	 7.974E+00	 3.171E+00	 1.311E-02	-1.044E-01	 1.084E+00	 2.432E+00	 8.159E+00	 1.744E-02	 4.179E-02	 1.969E-01	-1.559E+00	-6.896E-01	 4.179E-02	 6.939E-04	 1.084E+00	-6.277E+00
  15.900	 1.223E+00	-4.642E-01	 6.858E+00	 1.223E+00	-6.763E-02	 7.992E+00	 3.186E+00	 7.675E-01	-1.055E-01	 1.088E+00	 2.447E+00	 8.192E+00	 1.729E-02	 4.117E-02	 1.955E-01	-1.609E+00	 5.627E-01	 4.117E-02	 6.880E-04	 1.088E+00	-6.267E+00
  16.000	 1.231E+00	-8.003E-01	 7.147E+00	 1.231E+00	 2.644E-01	 7.703E+00	 3.201E+00	 1.339E+00	-1.067E-01	 1.093E+00	 2.461E+00	 8.232E+00	 1.716E-02	 4.060E-02	 1.942E-01	-7.893E-01	 1.511E+00	 4.060E-02	 6.827E-04	 1.093E+00	-6.257E+00
  16.100	 1.238E+00	-8.487E-01	 7.586E+00	 1.238E+00	 3.086E-01	 7.264E+00	 3.217E+00	 1.420E+00	-1.079E-01	 1.099E+00	 2.476E+00	 8.278E+00	 1.704E-02	 4.007E-02	 1.930E-01	 4.572E-01	 1.642E+00	 4.007E-02	 6.780E-04	 1.099E+00	-6.247E+00
  16.200	 1.246E+00	-5.845E-01	 7.938E+00	 1.246E+00	 3.960E-02	 6.912E+00	 3.234E+00	 9.696E-01	-1.091E-01	 1.110E+00	 2.492E+00	 8.354E+00	 1.698E-02	 3.970E-02	 1.918E-01	 1.456E+00	 8.856E-01	 3.970E-02	 6.758E-04	 1.110E+00	-6.236E+00
  16.300	 1.253E+00	-1.506E-01	 8.013E+00	 1.253E+00	-3.970E-01	 6.837E+00	 3.248E+00	 2.272E-01	-1.106E-01	 1.112E+00	 2.505E+00	 8.369E+00	 1.681E-02	 3.904E-02	 1.905E-01	 1.668E+00	-3.496E-01	 3.904E-02	 6.688E-04	 1.112E+00	-6.227E+00
  16.400	 1.259E+00	 2.172E-01	 7.770E+00	 1.259E+00	-7.665E-01	 7.080E+00	 3.259E+00	-4.041E-01	-1.122E-01	 1.108E+00	 2.517E+00	 8.341E+00	 1.655E-02	 3.820E-02	 1.891E-01	 9.783E-01	-1.396E+00	 3.820E-02	 6.584E-04	 1.108E+00	-6.218E+00
  16.500	 1.265E+00	 3.192E-01	 7.340E+00	 1.265E+00	-8.701E-01	 7.510E+00	 3.270E+00	-5.815E-01	-1.138E-01	 1.104E+00	 2.530E+00	 8.315E+00	 1.630E-02	 3.739E-02	 1.877E-01	-2.407E-01	-1.687E+00	 3.739E-02	 6.484E-04	 1.104E+00	-6.210E+00
  16.600	 1.271E+00	 9.994E-02	 6.957E+00	 1.271E+00	-6.518E-01	 7.893E+00	 3.282E+00	-2.119E-01	-1.153E-01	 1.097E+00	 2.542E+00	 8.263E+00	 1.600E-02	 3.649E-02	 1.864E-01	-1.330E+00	-1.067E+00	 3.649E-02	 6.366E-04	 1.097E+00	-6.201E+00
  16.700	 1.277E+00	-3.221E-01	 6.826E+00	 1.277E+00	-2.300E-01	 8.024E+00	 3.293E+00	 5.027E-01	-1.168E-01	 1.087E+00	 2.555E+00	 8.183E+00	 1.565E-02	 3.549E-02	 1.851E-01	-1.700E+00	 1.307E-01	 3.549E-02	 6.229E-04	 1.087E+00	-6.193E+00
  16.800	 1.284E+00	-7.193E-01	 7.020E+00	 1.284E+00	 1.669E-01	 7.831E+00	 3.304E+00	 1.175E+00	-1.182E-01	 1.077E+00	 2.567E+00	 8.106E+00	 1.532E-02	 3.454E-02	 1.838E-01	-1.151E+00	 1.257E+00	 3.454E-02	 6.097E-04	 1.077E+00	-6.184E+00
  16.900	 1.291E+00	-8.777E-01	 7.432E+00	 1.291E+00	 3.235E-01	 7.418E+00	 3.318E+00	 1.442E+00	-1.196E-01	 1.073E+00	 2.581E+00	 8.079E+00	 1.509E-02	 3.381E-02	 1.826E-01	 2.016E-02	 1.704E+00	 3.381E-02	 6.005E-04	 1.073E+00	-6.174E+00
  17.000	 1.297E+00	-7.117E-01	 7.841E+00	 1.297E+00	 1.550E-01	 7.009E+00	 3.333E+00	 1.156E+00	-1.208E-01	 1.074E+00	 2.595E+00	 8.084E+00	 1.492E-02	 3.324E-02	 1.814E-01	 1.180E+00	 1.230E+00	 3.324E-02	 5.939E-04	 1.074E+00	-6.165E+00
  17.100	 1.304E+00	-3.113E-01	 8.025E+00	 1.304E+00	-2.475E-01	 6.825E+00	 3.347E+00	 4.702E-01	-1.221E-01	 1.073E+00	 2.608E+00	 8.079E+00	 1.474E-02	 3.264E-02	 1.802E-01	 1.702E+00	 9.047E-02	 3.264E-02	 5.866E-04	 1.073E+00	-6.155E+00
  17.200	 1.311E+00	 1.063E-01	 7.884E+00	 1.311E+00	-6.674E-01	 6.966E+00	 3.361E+00	-2.451E-01	-1.233E-01	 1.072E+00	 2.622E+00	 8.074E+00	 1.456E-02	 3.206E-02	 1.791E-01	 1.304E+00	-1.098E+00	 3.206E-02	 5.795E-04	 1.072E+00	-6.146E+00
  17.300	 1.318E+00	 3.148E-01	 7.496E+00	 1.318E+00	-8.781E-01	 7.354E+00	 3.375E+00	-6.035E-01	-1.246E-01	 1.072E+00	 2.636E+00	 8.071E+00	 1.439E-02	 3.149E-02	 1.779E-01	 2.007E-01	-1.693E+00	 3.149E-02	 5.725E-04	 1.072E+00	-6.136E+00
  17.400	 1.325E+00	 2.003E-01	 7.069E+00	 1.325E+00	-7.668E-01	 7.781E+00	 3.391E+00	-4.093E-01	-1.259E-01	 1.077E+00	 2.651E+00	 8.106E+00	 1.428E-02	 3.108E-02	 1.769E-01	-1.011E+00	-1.372E+00	 3.108E-02	 5.684E-04	 1.077E+00	-6.126E+00
  17.500	 1.333E+00	-1.757E-01	 6.834E+00	 1.333E+00	-3.942E-01	 8.016E+00	 3.408E+00	 2.313E-01	-1.273E-01	 1.082E+00	 2.666E+00	 8.145E+00	 1.419E-02	 3.070E-02	 1.758E-01	-1.676E+00	-3.101E-01	 3.070E-02	 5.646E-04	 1.082E+00	-6.116E+00
  17.600	 1.340E+00	-6.108E-01	 6.919E+00	 1.340E+00	 3.742E-02	 7.931E+00	 3.424E+00	 9.727E-01	-1.286E-01	 1.087E+00	 2.681E+00	 8.184E+00	 1.410E-02	 3.033E-02	 1.748E-01	-1.435E+00	 9.198E-01	 3.033E-02	 5.610E-04	 1.087E+00	-6.105E+00
  17.700	 1.348E+00	-8.707E-01	 7.278E+00	 1.348E+00	 2.938E-01	 7.572E+00	 3.441E+00	 1.415E+00	-1.300E-01	 1.092E+00	 2.696E+00	 8.225E+00	 1.401E-02	 2.996E-02	 1.738E-01	-4.182E-01	 1.652E+00	 2.996E-02	 5.574E-04	 1.092E+00	-6.095E+00
  17.800	 1.355E+00	-8.155E-01	 7.716E+00	 1.355E+00	 2.357E-01	 7.134E+00	 3.457E+00	 1.320E+00	-1.314E-01	 1.096E+00	 2.710E+00	 8.249E+00	 1.389E-02	 2.955E-02	 1.728E-01	 8.248E-01	 1.492E+00	 2.955E-02	 5.528E-04	 1.096E+00	-6.085E+00
  17.900	 1.362E+00	-4.762E-01	 7.996E+00	 1.362E+00	-1.065E-01	 6.854E+00	 3.472E+00	 7.389E-01	-1.327E-01	 1.099E+00	 2.725E+00	 8.272E+00	 1.377E-02	 2.914E-02	 1.718E-01	 1.622E+00	 5.245E-01	 2.914E-02	 5.481E-04	 1.099E+00	-6.075E+00
  18.000	 1.370E+00	-3.694E-02	 7.968E+00	 1.370E+00	-5.488E-01	 6.882E+00	 3.487E+00	-1.229E-02	-1.341E-01	 1.102E+00	 2.739E+00	 8.296E+00	 1.366E-02	 2.874E-02	 1.708E-01	 1.542E+00	-7.263E-01	 2.874E-02	 5.436E-04	 1.102E+00	-6.065E+00
  18.100	 1.377E+00	 2.640E-01	 7.647E+00	 1.377E+00	-8.526E-01	 7.204E+00	 3.503E+00	-5.274E-01	-1.355E-01	 1.105E+00	 2.754E+00	 8.319E+00	 1.355E-02	 2.834E-02	 1.698E-01	 6.286E-01	-1.584E+00	 2.834E-02	 5.391E-04	 1.105E+00	-6.055E+00
  18.200	 1.384E+00	 2.631E-01	 7.205E+00	 1.384E+00	-8.545E-01	 7.645E+00	 3.517E+00	-5.278E-01	-1.369E-01	 1.107E+00	 2.768E+00	 8.336E+00	 1.343E-02	 2.794E-02	 1.688E-01	-6.247E-01	-1.586E+00	 2.794E-02	 5.343E-04	 1.107E+00	-6.045E+00
  18.300	 1.391E+00	-3.983E-02	 6.882E+00	 1.391E+00	-5.544E-01	 7.968E+00	 3.532E+00	-1.259E-02	-1.384E-01	 1.110E+00	 2.782E+00	 8.354E+00	 1.331E-02	 2.754E-02	 1.678E-01	-1.540E+00	-7.301E-01	 2.754E-02	 5.296E-04	 1.110E+00	-6.035E+00
  18.400	 1.398E+00	-4.818E-01	 6.853E+00	 1.398E+00	-1.150E-01	 7.997E+00	 3.547E+00	 7.399E-01	-1.398E-01	 1.112E+00	 2.797E+00	 8.370E+00	 1.319E-02	 2.714E-02	 1.669E-01	-1.623E+00	 5.205E-01	 2.714E-02	 5.249E-04	 1.112E+00	-6.025E+00
  18.500	 1.406E+00	-8.246E-01	 7.133E+00	 1.406E+00	 2.252E-01	 7.717E+00	 3.562E+00	 1.323E+00	-1.412E-01	 1.114E+00	 2.812E+00	 8.385E+00	 1.307E-02	 2.675E-02	 1.660E-01	-8.285E-01	 1.490E+00	 2.675E-02	 5.201E-04	 1.114E+00	-6.015E+00
  18.600	 1.413E+00	-8.837E-01	 7.571E+00	 1.413E+00	 2.816E-01	 7.279E+00	 3.578E+00	 1.422E+00	-1.427E-01	 1.116E+00	 2.827E+00	 8.401E+00	 1.296E-02	 2.637E-02	 1.651E-01	 4.141E-01	 1.654E+00	 2.637E-02	 5.155E-04	 1.116E+00	-6.004E+00
  18.700	 1.421E+00	-6.278E-01	 7.930E+00	 1.421E+00	 2.297E-02	 6.920E+00	 3.594E+00	 9.836E-01	-1.441E-01	 1.118E+00	 2.842E+00	 8.417E+00	 1.284E-02	 2.600E-02	 1.642E-01	 1.433E+00	 9.234E-01	 2.600E-02	 5.111E-04	 1.118E+00	-5.994E+00
  18.800	 1.429E+00	-1.959E-01	 8.016E+00	 1.429E+00	-4.115E-01	 6.834E+00	 3.609E+00	 2.448E-01	-1.456E-01	 1.120E+00	 2.857E+00	 8.432E+00	 1.273E-02	 2.564E-02	 1.633E-01	 1.677E+00	-3.059E-01	 2.564E-02	 5.065E-04	 1.120E+00	-5.983E+00
  18.900	 1.436E+00	 1.777E-01	 7.782E+00	 1.436E+00	-7.877E-01	 7.068E+00	 3.623E+00	-3.948E-01	-1.470E-01	 1.121E+00	 2.872E+00	 8.443E+00	 1.261E-02	 2.526E-02	 1.624E-01	 1.014E+00	-1.370E+00	 2.526E-02	 5.018E-04	 1.121E+00	-5.973E+00
  19.000	 1.444E+00	 2.904E-01	 7.356E+00	 1.444E+00	-9.029E-01	 7.494E+00	 3.638E+00	-5.891E-01	-1.485E-01	 1.123E+00	 2.887E+00	 8.452E+00	 1.249E-02	 2.489E-02	 1.616E-01	-1.965E-01	-1.693E+00	 2.489E-02	 4.971E-04	 1.123E+00	-5.962E+00
  19.100	 1.451E+00	 8.053E-02	 6.967E+00	 1.451E+00	-6.955E-01	 7.883E+00	 3.653E+00	-2.331E-01	-1.500E-01	 1.124E+00	 2.902E+00	 8.461E+00	 1.237E-02	 2.453E-02	 1.607E-01	-1.301E+00	-1.101E+00	 2.453E-02	 4.924E-04	 1.124E+00	-5.952E+00
  19.200	 1.459E+00	-3.391E-01	 6.825E+00	 1.459E+00	-2.783E-01	 8.025E+00	 3.668E+00	 4.809E-01	-1.515E-01	 1.125E+00	 2.918E+00	 8.470E+00	 1.226E-02	 2.418E-02	 1.599E-01	-1.702E+00	 8.623E-02	 2.418E-02	 4.878E-04	 1.125E+00	-5.941E+00
  19.300	 1.467E+00	-7.421E-01	 7.008E+00	 1.467E+00	 1.226E-01	 7.842E+00	 3.684E+00	 1.167E+00	-1.530E-01	 1.126E+00	 2.933E+00	 8.475E+00	 1.214E-02	 2.382E-02	 1.591E-01	-1.183E+00	 1.227E+00	 2.382E-02	 4.830E-04	 1.126E+00	-5.931E+00
  19.400	 1.475E+00	-9.109E-01	 7.416E+00	 1.475E+00	 2.902E-01	 7.434E+00	 3.699E+00	 1.453E+00	-1.545E-01	 1.125E+00	 2.950E+00	 8.470E+00	 1.201E-02	 2.344E-02	 1.583E-01	-2.439E-02	 1.704E+00	 2.344E-02	 4.778E-04	 1.125E+00	-5.919E+00
  19.500	 1.483E+00	-7.549E-01	 7.829E+00	 1.483E+00	 1.333E-01	 7.021E+00	 3.714E+00	 1.185E+00	-1.560E-01	 1.124E+00	 2.966E+00	 8.461E+00	 1.187E-02	 2.305E-02	 1.576E-01	 1.148E+00	 1.260E+00	 2.305E-02	 4.724E-04	 1.124E+00	-5.908E+00
  19.600	 1.491E+00	-3.590E-01	 8.024E+00	 1.491E+00	-2.639E-01	 6.826E+00	 3.730E+00	 5.084E-01	-1.575E-01	 1.124E+00	 2.982E+00	 8.461E+00	 1.175E-02	 2.270E-02	 1.568E-01	 1.699E+00	 1.349E-01	 2.270E-02	 4.676E-04	 1.124E+00	-5.897E+00
  19.700	 1.500E+00	 6.244E-02	 7.894E+00	 1.500E+00	-6.870E-01	 6.956E+00	 3.746E+00	-2.114E-01	-1.590E-01	 1.126E+00	 2.999E+00	 8.477E+00	 1.165E-02	 2.240E-02	 1.561E-01	 1.332E+00	-1.063E+00	 2.240E-02	 4.637E-04	 1.126E+00	-5.885E+00
  19.800	 1.508E+00	 2.813E-01	 7.511E+00	 1.508E+00	-9.075E-01	 7.339E+00	 3.763E+00	-5.856E-01	-1.605E-01	 1.128E+00	 3.016E+00	 8.493E+00	 1.156E-02	 2.210E-02	 1.554E-01	 2.449E-01	-1.687E+00	 2.210E-02	 4.599E-04	 1.128E+00	-5.873E+00
  19.900	 1.517E+00	 1.787E-01	 7.082E+00	 1.517E+00	-8.067E-01	 7.768E+00	 3.779E+00	-4.114E-01	-1.620E-01	 1.130E+00	 3.034E+00	 8.509E+00	 1.146E-02	 2.181E-02	 1.548E-01	-9.748E-01	-1.398E+00	 2.181E-02	 4.562E-04	 1.130E+00	-5.861E+00
  20.000	 1.526E+00	-1.902E-01	 6.837E+00	 1.526E+00	-4.396E-01	 8.013E+00	 3.796E+00	 2.174E-01	-1.635E-01	 1.132E+00	 3.051E+00	 8.526E+00	 1.137E-02	 2.153E-02	 1.541E-01	-1.667E+00	-3.538E-01	 2.153E-02	 4.525E-04	 1.132E+00	-5.849E+00
  20.100	 1.535E+00	-6.266E-01	 6.911E+00	 1.535E+00	-5.007E-03	 7.939E+00	 3.813E+00	 9.612E-01	-1.650E-01	 1.135E+00	 3.069E+00	 8.542E+00	 1.128E-02	 2.125E-02	 1.535E-01	-1.459E+00	 8.820E-01	 2.125E-02	 4.489E-04	 1.135E+00	-5.837E+00
  20.200	 1.543E+00	-8.949E-01	 7.262E+00	 1.543E+00	 2.615E-01	 7.588E+00	 3.830E+00	 1.418E+00	-1.665E-01	 1.137E+00	 3.087E+00	 8.560E+00	 1.119E-02	 2.098E-02	 1.528E-01	-4.612E-01	 1.641E+00	 2.098E-02	 4.454E-04	 1.137E+00	-5.824E+00
  20.300	 1.552E+00	-8.507E-01	 7.702E+00	 1.552E+00	 2.154E-01	 7.148E+00	 3.848E+00	 1.342E+00	-1.680E-01	 1.139E+00	 3.105E+00	 8.578E+00	 1.111E-02	 2.072E-02	 1.522E-01	 7.855E-01	 1.513E+00	 2.072E-02	 4.419E-04	 1.139E+00	-5.812E+00
  20.400	 1.562E+00	-5.185E-01	 7.991E+00	 1.562E+00	-1.191E-01	 6.859E+00	 3.866E+00	 7.748E-01	-1.695E-01	 1.143E+00	 3.123E+00	 8.609E+00	 1.104E-02	 2.049E-02	 1.516E-01	 1.608E+00	 5.667E-01	 2.049E-02	 4.392E-04	 1.143E+00	-5.799E+00
  20.500	 1.571E+00	-7.846E-02	 7.975E+00	 1.571E+00	-5.617E-01	 6.875E+00	 3.885E+00	 2.410E-02	-1.710E-01	 1.149E+00	 3.142E+00	 8.654E+00	 1.099E-02	 2.029E-02	 1.510E-01	 1.561E+00	-6.857E-01	 2.029E-02	 4.372E-04	 1.149E+00	-5.786E+00
  20.600	 1.581E+00	 2.309E-01	 7.661E+00	 1.581E+00	-8.737E-01	 7.189E+00	 3.904E+00	-5.037E-01	-1.725E-01	 1.155E+00	 3.161E+00	 8.699E+00	 1.094E-02	 2.010E-02	 1.505E-01	 6.698E-01	-1.567E+00	 2.010E-02	 4.352E-04	 1.155E+00	-5.773E+00
  20.700	 1.590E+00	 2.417E-01	 7.220E+00	 1.590E+00	-8.871E-01	 7.630E+00	 3.924E+00	-5.219E-01	-1.740E-01	 1.161E+00	 3.181E+00	 8.744E+00	 1.089E-02	 1.992E-02	 1.500E-01	-5.830E-01	-1.602E+00	 1.992E-02	 4.332E-04	 1.161E+00	-5.759E+00
  20.800	 1.600E+00	-5.272E-02	 6.889E+00	 1.600E+00	-5.954E-01	 7.961E+00	 3.943E+00	-1.939E-02	-1.754E-01	 1.167E+00	 3.201E+00	 8.789E+00	 1.084E-02	 1.973E-02	 1.494E-01	-1.521E+00	-7.701E-01	 1.973E-02	 4.313E-04	 1.167E+00	-5.746E+00
  20.900	 1.610E+00	-4.938E-01	 6.848E+00	 1.610E+00	-1.570E-01	 8.002E+00	 3.963E+00	 7.335E-01	-1.769E-01	 1.173E+00	 3.220E+00	 8.835E+00	 1.079E-02	 1.955E-02	 1.489E-01	-1.636E+00	 4.779E-01	 1.955E-02	 4.294E-04	 1.173E+00	-5.732E+00
  21.000	 1.620E+00	-8.438E-01	 7.119E+00	 1.620E+00	 1.904E-01	 7.731E+00	 3.983E+00	 1.331E+00	-1.784E-01	 1.179E+00	 3.241E+00	 8.881E+00	 1.074E-02	 1.937E-02	 1.485E-01	-8.671E-01	 1.468E+00	 1.937E-02	 4.275E-04	 1.179E+00	-5.718E+00
  21.100	 1.631E+00	-9.143E-01	 7.556E+00	 1.631E+00	 2.582E-01	 7.294E+00	 4.003E+00	 1.451E+00	-1.799E-01	 1.186E+00	 3.261E+00	 8.927E+00	 1.070E-02	 1.920E-02	 1.480E-01	 3.707E-01	 1.664E+00	 1.920E-02	 4.257E-04	 1.186E+00	-5.704E+00
  21.200	 1.641E+00	-6.679E-01	 7.921E+00	 1.641E+00	 9.028E-03	 6.929E+00	 4.024E+00	 1.031E+00	-1.815E-01	 1.192E+00	 3.282E+00	 8.974E+00	 1.065E-02	 1.903E-02	 1.475E-01	 1.408E+00	 9.605E-01	 1.903E-02	 4.239E-04	 1.192E+00	-5.689E+00
  21.300	 1.651E+00	-2.385E-01	 8.019E+00	 1.651E+00	-4.231E-01	 6.832E+00	 4.044E+00	 2.987E-01	-1.830E-01	 1.198E+00	 3.303E+00	 9.022E+00	 1.061E-02	 1.886E-02	 1.471E-01	 1.684E+00	-2.620E-01	 1.886E-02	 4.222E-04	 1.198E+00	-5.675E+00
  21.400	 1.662E+00	 1.410E-01	 7.795E+00	 1.662E+00	-8.054E-01	 7.055E+00	 4.065E+00	-3.487E-01	-1.845E-01	 1.205E+00	 3.324E+00	 9.070E+00	 1.057E-02	 1.870E-02	 1.466E-01	 1.050E+00	-1.343E+00	 1.870E-02	 4.205E-04	 1.205E+00	-5.660E+00
  21.500	 1.673E+00	 2.646E-01	 7.371E+00	 1.673E+00	-9.318E-01	 7.479E+00	 4.086E+00	-5.594E-01	-1.860E-01	 1.211E+00	 3.345E+00	 9.118E+00	 1.052E-02	 1.854E-02	 1.462E-01	-1.522E-01	-1.698E+00	 1.854E-02	 4.188E-04	 1.211E+00	-5.645E+00
  21.600	 1.684E+00	 6.463E-02	 6.977E+00	 1.684E+00	-7.351E-01	 7.873E+00	 4.108E+00	-2.172E-01	-1.875E-01	 1.220E+00	 3.367E+00	 9.185E+00	 1.050E-02	 1.841E-02	 1.458E-01	-1.272E+00	-1.135E+00	 1.841E-02	 4.179E-04	 1.220E+00	-5.630E+00
  21.700	 1.695E+00	-3.516E-01	 6.825E+00	 1.695E+00	-3.222E-01	 8.025E+00	 4.131E+00	 4.939E-01	-1.889E-01	 1.229E+00	 3.390E+00	 9.252E+00	 1.048E-02	 1.829E-02	 1.454E-01	-1.704E+00	 4.171E-02	 1.829E-02	 4.171E-04	 1.229E+00	-5.615E+00
  21.800	 1.706E+00	-7.598E-01	 6.997E+00	 1.706E+00	 8.277E-02	 7.853E+00	 4.154E+00	 1.191E+00	-1.904E-01	 1.238E+00	 3.412E+00	 9.318E+00	 1.046E-02	 1.817E-02	 1.451E-01	-1.215E+00	 1.196E+00	 1.817E-02	 4.163E-04	 1.238E+00	-5.599E+00
  21.900	 1.718E+00	-9.404E-01	 7.401E+00	 1.718E+00	 2.599E-01	 7.449E+00	 4.177E+00	 1.500E+00	-1.918E-01	 1.246E+00	 3.435E+00	 9.385E+00	 1.044E-02	 1.805E-02	 1.447E-01	-6.892E-02	 1.703E+00	 1.805E-02	 4.155E-04	 1.246E+00	-5.583E+00
  22.000	 1.729E+00	-7.964E-01	 7.818E+00	 1.729E+00	 1.126E-01	 7.032E+00	 4.201E+00	 1.256E+00	-1.933E-01	 1.256E+00	 3.458E+00	 9.453E+00	 1.042E-02	 1.794E-02	 1.443E-01	 1.114E+00	 1.290E+00	 1.794E-02	 4.147E-04	 1.256E+00	-5.567E+00
  22.100	 1.741E+00	-4.068E-01	 8.022E+00	 1.741E+00	-2.805E-01	 6.828E+00	 4.224E+00	 5.917E-01	-1.948E-01	 1.265E+00	 3.481E+00	 9.522E+00	 1.040E-02	 1.782E-02	 1.440E-01	 1.695E+00	 1.793E-01	 1.782E-02	 4.139E-04	 1.265E+00	-5.551E+00
  22.200	 1.752E+00	 1.696E-02	 7.904E+00	 1.752E+00	-7.077E-01	 6.946E+00	 4.248E+00	-1.306E-01	-1.963E-01	 1.274E+00	 3.504E+00	 9.591E+00	 1.038E-02	 1.771E-02	 1.436E-01	 1.359E+00	-1.028E+00	 1.771E-02	 4.132E-04	 1.274E+00	-5.535E+00
  22.300	 1.764E+00	 2.448E-01	 7.527E+00	 1.764E+00	-9.391E-01	 7.323E+00	 4.272E+00	-5.185E-01	-1.977E-01	 1.283E+00	 3.527E+00	 9.661E+00	 1.037E-02	 1.760E-02	 1.433E-01	 2.889E-01	-1.680E+00	 1.760E-02	 4.125E-04	 1.283E+00	-5.519E+00
  22.400	 1.776E+00	 1.526E-01	 7.095E+00	 1.776E+00	-8.504E-01	 7.755E+00	 4.296E+00	-3.603E-01	-1.992E-01	 1.293E+00	 3.551E+00	 9.733E+00	 1.035E-02	 1.749E-02	 1.430E-01	-9.379E-01	-1.423E+00	 1.749E-02	 4.118E-04	 1.293E+00	-5.503E+00
  22.500	 1.788E+00	-2.107E-01	 6.841E+00	 1.788E+00	-4.907E-01	 8.009E+00	 4.321E+00	 2.606E-01	-2.006E-01	 1.302E+00	 3.575E+00	 9.803E+00	 1.033E-02	 1.739E-02	 1.427E-01	-1.658E+00	-3.973E-01	 1.739E-02	 4.111E-04	 1.302E+00	-5.486E+00
  22.600	 1.800E+00	-6.497E-01	 6.903E+00	 1.800E+00	-5.518E-02	 7.947E+00	 4.346E+00	 1.010E+00	-2.021E-01	 1.311E+00	 3.600E+00	 9.870E+00	 1.031E-02	 1.727E-02	 1.424E-01	-1.481E+00	 8.436E-01	 1.727E-02	 4.103E-04	 1.311E+00	-5.469E+00
  22.700	 1.812E+00	-9.280E-01	 7.247E+00	 1.812E+00	 2.196E-01	 7.603E+00	 4.371E+00	 1.486E+00	-2.035E-01	 1.320E+00	 3.624E+00	 9.939E+00	 1.029E-02	 1.716E-02	 1.421E-01	-5.040E-01	 1.628E+00	 1.716E-02	 4.095E-04	 1.320E+00	-5.452E+00
  22.800	 1.825E+00	-8.961E-01	 7.688E+00	 1.825E+00	 1.841E-01	 7.162E+00	 4.397E+00	 1.432E+00	-2.049E-01	 1.329E+00	 3.649E+00	 1.001E+01	 1.027E-02	 1.706E-02	 1.418E-01	 7.457E-01	 1.533E+00	 1.706E-02	 4.087E-04	 1.329E+00	-5.435E+00
  22.900	 1.837E+00	-5.722E-01	 7.986E+00	 1.837E+00	-1.433E-01	 6.864E+00	 4.423E+00	 8.805E-01	-2.063E-01	 1.338E+00	 3.674E+00	 1.008E+01	 1.025E-02	 1.695E-02	 1.415E-01	 1.592E+00	 6.085E-01	 1.695E-02	 4.080E-04	 1.338E+00	-5.418E+00
  23.000	 1.849E+00	-1.323E-01	 7.981E+00	 1.849E+00	-5.867E-01	 6.869E+00	 4.449E+00	 1.307E-01	-2.078E-01	 1.347E+00	 3.699E+00	 1.014E+01	 1.023E-02	 1.684E-02	 1.413E-01	 1.578E+00	-6.447E-01	 1.684E-02	 4.071E-04	 1.347E+00	-5.401E+00
  23.100	 1.862E+00	 1.847E-01	 7.675E+00	 1.862E+00	-9.073E-01	 7.175E+00	 4.474E+00	-4.095E-01	-2.092E-01	 1.356E+00	 3.724E+00	 1.021E+01	 1.021E-02	 1.674E-02	 1.410E-01	 7.106E-01	-1.549E+00	 1.674E-02	 4.064E-04	 1.356E+00	-5.383E+00
  23.200	 1.875E+00	 2.065E-01	 7.234E+00	 1.875E+00	-9.327E-01	 7.616E+00	 4.500E+00	-4.460E-01	-2.107E-01	 1.366E+00	 3.749E+00	 1.028E+01	 1.019E-02	 1.664E-02	 1.407E-01	-5.410E-01	-1.616E+00	 1.664E-02	 4.056E-04	 1.366E+00	-5.366E+00
  23.300	 1.887E+00	-7.963E-02	 6.896E+00	 1.887E+00	-6.502E-01	 7.954E+00	 4.527E+00	 4.294E-02	-2.121E-01	 1.375E+00	 3.774E+00	 1.035E+01	 1.017E-02	 1.653E-02	 1.405E-01	-1.500E+00	-8.096E-01	 1.653E-02	 4.048E-04	 1.375E+00	-5.348E+00
  23.400	 1.900E+00	-5.199E-01	 6.844E+00	 1.900E+00	-2.134E-01	 8.006E+00	 4.554E+00	 7.950E-01	-2.135E-01	 1.384E+00	 3.800E+00	 1.042E+01	 1.015E-02	 1.643E-02	 1.402E-01	-1.648E+00	 4.350E-01	 1.643E-02	 4.039E-04	 1.384E+00	-5.331E+00
  23.500	 1.913E+00	-8.774E-01	 7.106E+00	 1.913E+00	 1.405E-01	 7.744E+00	 4.582E+00	 1.406E+00	-2.149E-01	 1.393E+00	 3.827E+00	 1.049E+01	 1.013E-02	 1.632E-02	 1.400E-01	-9.052E-01	 1.444E+00	 1.632E-02	 4.031E-04	 1.393E+00	-5.312E+00
  23.600	 1.926E+00	-9.597E-01	 7.540E+00	 1.926E+00	 2.192E-01	 7.310E+00	 4.609E+00	 1.547E+00	-2.163E-01	 1.402E+00	 3.853E+00	 1.055E+01	 1.011E-02	 1.622E-02	 1.398E-01	 3.271E-01	 1.673E+00	 1.622E-02	 4.023E-04	 1.402E+00	-5.294E+00
  23.700	 1.940E+00	-7.234E-01	 7.912E+00	 1.940E+00	-2.080E-02	 6.938E+00	 4.637E+00	 1.144E+00	-2.177E-01	 1.411E+00	 3.879E+00	 1.062E+01	 1.009E-02	 1.612E-02	 1.395E-01	 1.383E+00	 9.970E-01	 1.612E-02	 4.015E-04	 1.411E+00	-5.276E+00
  23.800	 1.953E+00	-2.972E-01	 8.021E+00	 1.953E+00	-4.507E-01	 6.829E+00	 4.665E+00	 4.174E-01	-2.191E-01	 1.420E+00	 3.906E+00	 1.069E+01	 1.007E-02	 1.602E-02	 1.393E-01	 1.691E+00	-2.179E-01	 1.602E-02	 4.007E-04	 1.420E+00	-5.257E+00
  23.900	 1.966E+00	 8.778E-02	 7.807E+00	 1.966E+00	-8.389E-01	 7.043E+00	 4.692E+00	-2.393E-01	-2.205E-01	 1.427E+00	 3.932E+00	 1.075E+01	 1.004E-02	 1.590E-02	 1.391E-01	 1.085E+00	-1.315E+00	 1.590E-02	 3.994E-04	 1.427E+00	-5.239E+00
  24.000	 1.979E+00	 2.222E-01	 7.387E+00	 1.979E+00	-9.766E-01	 7.463E+00	 4.719E+00	-4.686E-01	-2.218E-01	 1.435E+00	 3.959E+00	 1.080E+01	 1.000E-02	 1.578E-02	 1.388E-01	-1.078E-01	-1.701E+00	 1.578E-02	 3.981E-04	 1.435E+00	-5.221E+00
  24.100	 1.993E+00	 3.260E-02	 6.987E+00	 1.993E+00	-7.903E-01	 7.863E+00	 4.746E+00	-1.448E-01	-2.232E-01	 1.442E+00	 3.985E+00	 1.086E+01	 9.973E-03	 1.567E-02	 1.386E-01	-1.242E+00	-1.168E+00	 1.567E-02	 3.968E-04	 1.442E+00	-5.203E+00
  24.200	 2.006E+00	-3.795E-01	 6.824E+00	 2.006E+00	-3.815E-01	 8.026E+00	 4.774E+00	 5.586E-01	-2.246E-01	 1.449E+00	 4.012E+00	 1.091E+01	 9.942E-03	 1.556E-02	 1.384E-01	-1.705E+00	-2.830E-03	 1.556E-02	 3.956E-04	 1.449E+00	-5.184E+00
  24.300	 2.019E+00	-7.921E-01	 6.986E+00	 2.019E+00	 2.781E-02	 7.864E+00	 4.801E+00	 1.263E+00	-2.260E-01	 1.457E+00	 4.039E+00	 1.097E+01	 9.911E-03	 1.544E-02	 1.382E-01	-1.246E+00	 1.163E+00	 1.544E-02	 3.944E-04	 1.457E+00	-5.166E+00
  24.400	 2.033E+00	-9.831E-01	 7.385E+00	 2.033E+00	 2.154E-01	 7.465E+00	 4.829E+00	 1.589E+00	-2.275E-01	 1.465E+00	 4.065E+00	 1.103E+01	 9.882E-03	 1.534E-02	 1.380E-01	-1.134E-01	 1.701E+00	 1.534E-02	 3.932E-04	 1.465E+00	-5.147E+00
  24.500	 2.046E+00	-8.502E-01	 7.806E+00	 2.046E+00	 7.907E-02	 7.044E+00	 4.857E+00	 1.362E+00	-2.288E-01	 1.472E+00	 4.093E+00	 1.108E+01	 9.853E-03	 1.523E-02	 1.377E-01	 1.080E+00	 1.319E+00	 1.523E-02	 3.921E-04	 1.472E+00	-5.128E+00
  24.600	 2.060E+00	-4.660E-01	 8.020E+00	 2.060E+00	-3.085E-01	 6.830E+00	 4.886E+00	 7.070E-01	-2.302E-01	 1.480E+00	 4.120E+00	 1.114E+01	 9.823E-03	 1.512E-02	 1.376E-01	 1.690E+00	 2.235E-01	 1.512E-02	 3.909E-04	 1.480E+00	-5.109E+00
  24.700	 2.074E+00	-3.929E-02	 7.913E+00	 2.074E+00	-7.387E-01	 6.937E+00	 4.915E+00	-2.099E-02	-2.316E-01	 1.488E+00	 4.148E+00	 1.120E+01	 9.795E-03	 1.502E-02	 1.374E-01	 1.386E+00	-9.924E-01	 1.502E-02	 3.898E-04	 1.488E+00	-5.090E+00
  24.800	 2.088E+00	 1.985E-01	 7.542E+00	 2.088E+00	-9.797E-01	 7.308E+00	 4.944E+00	-4.267E-01	-2.330E-01	 1.495E+00	 4.176E+00	 1.125E+01	 9.761E-03	 1.490E-02	 1.372E-01	 3.327E-01	-1.672E+00	 1.490E-02	 3.884E-04	 1.495E+00	-5.071E+00
  24.900	 2.102E+00	 1.178E-01	 7.108E+00	 2.102E+00	-9.022E-01	 7.742E+00	 4.972E+00	-2.894E-01	-2.343E-01	 1.501E+00	 4.204E+00	 1.130E+01	 9.723E-03	 1.479E-02	 1.370E-01	-9.004E-01	-1.447E+00	 1.479E-02	 3.869E-04	 1.501E+00	-5.051E+00
  25.000	 2.116E+00	-2.385E-01	 6.845E+00	 2.116E+00	-5.489E-01	 8.005E+00	 5.001E+00	 3.183E-01	-2.357E-01	 1.507E+00	 4.231E+00	 1.134E+01	 9.683E-03	 1.467E-02	 1.368E-01	-1.647E+00	-4.404E-01	 1.467E-02	 3.853E-04	 1.507E+00	-5.032E+00
