
These predictions were generated by FAST (v7.01.00a-bjj, 15-Feb-2012) on 15-Feb-2012 at 17:29:48.
The aerodynamic calculations were made by AeroDyn (v13.00.01a-bjj, 30-Jan-2012).

 FAST certification Test #11: WindPACT 1.5 MW Baseline with many DOFs undergoing a pitch failure.

Time	RotSpeed	BldPitch1	OoPDefl1	OoPDefl3	TipALxb1	RootMxb1	RootMyb1	RootMzb1	RotThrust	LSShftFya	LSShftFza	LSSTipMya	LSSTipMza	RotTorq	RotPwr	GenPwr	TTDspFA	TTDspSS	TwHt1MLxt	TwHt1MLyt	TwHt1MLzt
(s)	(rpm)	(deg)	(m)	(m)	(m/s^2)	(kN·m)	(kN·m)	(kN·m)	(kN)	(kN)	(kN)	(kN·m)	(kN·m)	(kN·m)	(kW)	(kW)	(m)	(m)	(kN·m)	(kN·m)	(kN·m)
  10.000	 2.349E+01	 1.308E+01	 4.716E-01	 1.637E-01	 1.526E+01	-1.960E+02	 3.769E+02	 3.074E+00	 7.625E+01	 1.907E+02	-1.826E+02	 9.015E+01	 1.745E+02	 6.759E+02	 1.663E+03	 1.722E+03	 2.371E-02	-3.880E-02	 1.183E+03	 1.036E+03	 5.872E+00
  10.050	 2.341E+01	 1.303E+01	 4.784E-01	 1.510E-01	 1.236E+01	-1.587E+02	 3.627E+02	 2.936E+00	 7.170E+01	 1.663E+02	-2.039E+02	 9.501E+01	 7.583E+01	 6.629E+02	 1.625E+03	 1.716E+03	 2.516E-02	-3.988E-02	 1.224E+03	 1.118E+03	-4.856E+01
  10.100	 2.333E+01	 1.299E+01	 4.997E-01	 1.666E-01	 8.536E+00	-1.227E+02	 3.710E+02	 2.881E+00	 7.094E+01	 1.404E+02	-2.233E+02	 9.953E+01	 4.107E+01	 6.630E+02	 1.619E+03	 1.710E+03	 2.724E-02	-4.072E-02	 1.252E+03	 1.203E+03	-6.447E+01
  10.150	 2.325E+01	 1.293E+01	 5.265E-01	 2.008E-01	 9.754E+00	-8.484E+01	 4.103E+02	 2.780E+00	 7.456E+01	 1.124E+02	-2.389E+02	 1.055E+02	 4.618E+01	 6.758E+02	 1.645E+03	 1.704E+03	 2.986E-02	-4.131E-02	 1.268E+03	 1.291E+03	-5.110E+01
  10.200	 2.318E+01	 1.290E+01	 5.605E-01	 2.388E-01	 1.226E+01	-4.776E+01	 4.672E+02	 2.757E+00	 8.365E+01	 8.326E+01	-2.507E+02	 9.341E+01	 7.541E+01	 6.923E+02	 1.681E+03	 1.699E+03	 3.306E-02	-4.164E-02	 1.274E+03	 1.397E+03	-9.345E+00
  10.250	 2.313E+01	 1.290E+01	 6.051E-01	 2.850E-01	 8.534E+00	-1.102E+01	 5.157E+02	 2.666E+00	 9.172E+01	 5.292E+01	-2.586E+02	 7.416E+01	 1.122E+02	 6.927E+02	 1.678E+03	 1.696E+03	 3.699E-02	-4.172E-02	 1.273E+03	 1.535E+03	 4.179E+01
  10.300	 2.308E+01	 1.290E+01	 6.514E-01	 3.458E-01	 3.458E+00	 3.310E+01	 5.573E+02	 2.780E+00	 9.633E+01	 2.109E+01	-2.629E+02	 7.012E+01	 1.249E+02	 6.806E+02	 1.645E+03	 1.692E+03	 4.178E-02	-4.151E-02	 1.264E+03	 1.711E+03	 6.739E+01
  10.350	 2.301E+01	 1.286E+01	 6.866E-01	 4.221E-01	-7.724E-01	 8.816E+01	 5.886E+02	 2.780E+00	 9.957E+01	-1.053E+01	-2.643E+02	 6.111E+01	 1.106E+02	 6.779E+02	 1.633E+03	 1.687E+03	 4.747E-02	-4.100E-02	 1.245E+03	 1.930E+03	 6.132E+01
  10.400	 2.294E+01	 1.282E+01	 6.999E-01	 5.066E-01	 1.128E+00	 1.538E+02	 6.146E+02	 2.599E+00	 1.009E+02	-4.241E+01	-2.615E+02	 5.457E+01	 5.543E+01	 6.851E+02	 1.646E+03	 1.682E+03	 5.405E-02	-4.018E-02	 1.214E+03	 2.180E+03	 1.187E+01
  10.450	 2.289E+01	 1.281E+01	 6.954E-01	 5.778E-01	 1.101E+01	 2.204E+02	 6.432E+02	 2.487E+00	 1.044E+02	-7.379E+01	-2.549E+02	 4.038E+01	-5.773E+00	 7.007E+02	 1.680E+03	 1.678E+03	 6.150E-02	-3.911E-02	 1.173E+03	 2.454E+03	-4.631E+01
  10.500	 2.285E+01	 1.281E+01	 6.960E-01	 6.223E-01	 1.988E+01	 2.753E+02	 6.510E+02	 1.953E+00	 1.087E+02	-1.033E+02	-2.436E+02	-1.351E+00	-4.337E+01	 7.026E+02	 1.682E+03	 1.675E+03	 6.984E-02	-3.786E-02	 1.128E+03	 2.756E+03	-9.264E+01
  10.550	 2.281E+01	 1.283E+01	 7.204E-01	 6.423E-01	 1.070E+01	 3.165E+02	 6.358E+02	 1.519E+00	 1.116E+02	-1.302E+02	-2.278E+02	-5.079E+01	-4.561E+01	 6.917E+02	 1.652E+03	 1.672E+03	 7.895E-02	-3.644E-02	 1.078E+03	 3.084E+03	-1.167E+02
  10.600	 2.275E+01	 1.281E+01	 7.506E-01	 6.411E-01	-4.925E+00	 3.502E+02	 6.269E+02	 1.114E+00	 1.127E+02	-1.545E+02	-2.087E+02	-6.297E+01	-3.885E+01	 6.875E+02	 1.638E+03	 1.668E+03	 8.861E-02	-3.483E-02	 1.020E+03	 3.425E+03	-1.215E+02
  10.650	 2.269E+01	 1.276E+01	 7.511E-01	 6.250E-01	-8.151E+00	 3.841E+02	 6.546E+02	 1.186E+00	 1.097E+02	-1.784E+02	-1.896E+02	 8.668E+00	-1.798E+01	 6.870E+02	 1.633E+03	 1.664E+03	 9.856E-02	-3.305E-02	 9.557E+02	 3.773E+03	-6.162E+01
  10.700	 2.264E+01	 1.275E+01	 7.150E-01	 6.030E-01	 7.158E+00	 4.147E+02	 6.960E+02	 1.100E+00	 1.099E+02	-2.002E+02	-1.684E+02	 9.030E+01	-2.087E+01	 6.939E+02	 1.645E+03	 1.659E+03	 1.086E-01	-3.114E-02	 8.861E+02	 4.121E+03	-2.031E+00
  10.750	 2.259E+01	 1.273E+01	 6.783E-01	 5.822E-01	 1.939E+01	 4.462E+02	 6.978E+02	 6.919E-01	 1.077E+02	-2.185E+02	-1.438E+02	 1.288E+02	-5.751E+01	 6.912E+02	 1.635E+03	 1.656E+03	 1.186E-01	-2.916E-02	 8.161E+02	 4.465E+03	 1.728E+01
  10.800	 2.253E+01	 1.269E+01	 6.656E-01	 5.667E-01	 4.050E+00	 4.777E+02	 6.388E+02	 6.324E-01	 1.035E+02	-2.324E+02	-1.162E+02	 8.789E+01	-1.106E+02	 6.741E+02	 1.590E+03	 1.651E+03	 1.282E-01	-2.715E-02	 7.485E+02	 4.797E+03	-2.759E+01
  10.850	 2.245E+01	 1.261E+01	 6.530E-01	 5.614E-01	 1.961E+00	 5.104E+02	 5.819E+02	 5.692E-01	 1.025E+02	-2.428E+02	-8.762E+01	 1.906E+01	-1.518E+02	 6.743E+02	 1.585E+03	 1.646E+03	 1.372E-01	-2.512E-02	 6.772E+02	 5.099E+03	-9.051E+01
  10.900	 2.238E+01	 1.257E+01	 6.342E-01	 5.755E-01	 1.391E+01	 5.346E+02	 5.769E+02	 3.696E-01	 1.051E+02	-2.510E+02	-5.895E+01	-1.312E+01	-1.698E+02	 6.823E+02	 1.599E+03	 1.641E+03	 1.451E-01	-2.309E-02	 6.049E+02	 5.368E+03	-1.105E+02
  10.950	 2.232E+01	 1.251E+01	 6.348E-01	 6.160E-01	 1.937E+01	 5.460E+02	 6.179E+02	 6.559E-01	 1.112E+02	-2.582E+02	-2.960E+01	-2.790E+00	-1.789E+02	 6.881E+02	 1.608E+03	 1.636E+03	 1.520E-01	-2.113E-02	 5.345E+02	 5.601E+03	-8.323E+01
  11.000	 2.226E+01	 1.245E+01	 6.683E-01	 6.795E-01	 1.790E+01	 5.406E+02	 6.431E+02	 1.516E-01	 1.147E+02	-2.598E+02	 5.590E-01	-2.186E+01	-1.767E+02	 6.848E+02	 1.597E+03	 1.632E+03	 1.579E-01	-1.927E-02	 4.705E+02	 5.803E+03	-8.168E+01
  11.050	 2.220E+01	 1.239E+01	 7.270E-01	 7.529E-01	 3.850E+00	 5.253E+02	 6.715E+02	 1.393E-01	 1.195E+02	-2.579E+02	 3.039E+01	-4.212E+01	-1.750E+02	 6.815E+02	 1.584E+03	 1.627E+03	 1.629E-01	-1.758E-02	 4.117E+02	 5.970E+03	-8.215E+01
  11.100	 2.215E+01	 1.236E+01	 7.771E-01	 8.332E-01	-6.026E+00	 5.059E+02	 7.060E+02	 5.936E-01	 1.257E+02	-2.532E+02	 6.024E+01	-6.316E+01	-1.852E+02	 6.926E+02	 1.606E+03	 1.623E+03	 1.670E-01	-1.605E-02	 3.555E+02	 6.101E+03	-8.037E+01
  11.150	 2.210E+01	 1.232E+01	 7.991E-01	 9.305E-01	 2.015E+00	 4.788E+02	 7.540E+02	 1.033E+00	 1.349E+02	-2.447E+02	 8.905E+01	-7.818E+01	-1.912E+02	 7.088E+02	 1.641E+03	 1.620E+03	 1.704E-01	-1.475E-02	 3.062E+02	 6.206E+03	-7.171E+01
  11.200	 2.207E+01	 1.231E+01	 8.075E-01	 1.046E+00	 9.821E+00	 4.461E+02	 7.977E+02	 1.797E+00	 1.417E+02	-2.334E+02	 1.163E+02	-8.390E+01	-1.864E+02	 7.128E+02	 1.648E+03	 1.618E+03	 1.734E-01	-1.370E-02	 2.689E+02	 6.299E+03	-5.741E+01
  11.250	 2.204E+01	 1.232E+01	 8.178E-01	 1.167E+00	 8.751E+00	 4.085E+02	 8.104E+02	 1.942E+00	 1.467E+02	-2.185E+02	 1.428E+02	-1.268E+02	-1.956E+02	 7.119E+02	 1.643E+03	 1.616E+03	 1.760E-01	-1.291E-02	 2.424E+02	 6.379E+03	-6.396E+01
  11.300	 2.202E+01	 1.232E+01	 8.280E-01	 1.263E+00	 4.590E+00	 3.721E+02	 8.099E+02	 2.426E+00	 1.505E+02	-2.016E+02	 1.679E+02	-1.810E+02	-2.116E+02	 7.148E+02	 1.648E+03	 1.614E+03	 1.785E-01	-1.239E-02	 2.258E+02	 6.455E+03	-6.836E+01
  11.350	 2.200E+01	 1.233E+01	 8.315E-01	 1.315E+00	 1.008E+01	 3.341E+02	 8.023E+02	 2.751E+00	 1.556E+02	-1.818E+02	 1.911E+02	-2.414E+02	-1.957E+02	 7.257E+02	 1.672E+03	 1.612E+03	 1.810E-01	-1.217E-02	 2.186E+02	 6.534E+03	-8.990E+01
  11.400	 2.199E+01	 1.237E+01	 8.362E-01	 1.321E+00	 1.298E+01	 2.921E+02	 7.920E+02	 3.004E+00	 1.577E+02	-1.584E+02	 2.095E+02	-2.683E+02	-1.176E+02	 7.289E+02	 1.678E+03	 1.612E+03	 1.836E-01	-1.227E-02	 2.251E+02	 6.630E+03	-1.344E+02
  11.450	 2.197E+01	 1.240E+01	 8.484E-01	 1.281E+00	 9.781E+00	 2.484E+02	 7.864E+02	 3.270E+00	 1.568E+02	-1.332E+02	 2.258E+02	-2.343E+02	-4.072E+01	 7.194E+02	 1.655E+03	 1.611E+03	 1.864E-01	-1.268E-02	 2.439E+02	 6.742E+03	-1.501E+02
  11.500	 2.195E+01	 1.242E+01	 8.577E-01	 1.205E+00	 8.102E-02	 2.052E+02	 7.794E+02	 3.299E+00	 1.539E+02	-1.057E+02	 2.378E+02	-1.680E+02	 3.411E+01	 7.110E+02	 1.634E+03	 1.609E+03	 1.890E-01	-1.335E-02	 2.721E+02	 6.860E+03	-1.654E+02
  11.550	 2.191E+01	 1.241E+01	 8.456E-01	 1.094E+00	 3.604E+00	 1.717E+02	 7.763E+02	 3.456E+00	 1.473E+02	-7.867E+01	 2.470E+02	-6.478E+01	 8.433E+01	 7.065E+02	 1.621E+03	 1.606E+03	 1.914E-01	-1.424E-02	 3.081E+02	 6.978E+03	-1.698E+02
  11.600	 2.188E+01	 1.239E+01	 8.196E-01	 9.568E-01	 8.198E+00	 1.387E+02	 7.433E+02	 3.255E+00	 1.404E+02	-5.018E+01	 2.546E+02	-1.048E+01	 1.005E+02	 7.052E+02	 1.616E+03	 1.604E+03	 1.931E-01	-1.530E-02	 3.487E+02	 7.060E+03	-1.715E+02
  11.650	 2.184E+01	 1.236E+01	 7.933E-01	 8.255E-01	 1.235E+01	 1.047E+02	 6.911E+02	 3.150E+00	 1.331E+02	-2.040E+01	 2.581E+02	 1.316E+01	 1.252E+02	 7.023E+02	 1.606E+03	 1.601E+03	 1.938E-01	-1.650E-02	 3.940E+02	 7.096E+03	-1.933E+02
  11.700	 2.179E+01	 1.232E+01	 7.738E-01	 7.272E-01	 1.697E+00	 6.385E+01	 6.270E+02	 3.229E+00	 1.265E+02	 1.045E+01	 2.574E+02	 8.307E+00	 1.575E+02	 6.951E+02	 1.586E+03	 1.598E+03	 1.935E-01	-1.782E-02	 4.435E+02	 7.073E+03	-2.218E+02
  11.750	 2.174E+01	 1.228E+01	 7.448E-01	 6.737E-01	 3.364E+00	 1.851E+01	 6.170E+02	 3.742E+00	 1.258E+02	 3.977E+01	 2.525E+02	 4.857E+01	 1.650E+02	 6.892E+02	 1.569E+03	 1.594E+03	 1.918E-01	-1.927E-02	 4.966E+02	 6.999E+03	-2.326E+02
  11.800	 2.169E+01	 1.221E+01	 7.075E-01	 6.502E-01	 1.209E+01	-2.969E+01	 6.304E+02	 4.148E+00	 1.284E+02	 6.786E+01	 2.449E+02	 8.453E+01	 1.432E+02	 6.922E+02	 1.572E+03	 1.590E+03	 1.888E-01	-2.082E-02	 5.505E+02	 6.874E+03	-2.226E+02
  11.850	 2.164E+01	 1.215E+01	 6.803E-01	 6.548E-01	 1.415E+01	-7.947E+01	 6.285E+02	 4.494E+00	 1.306E+02	 9.553E+01	 2.365E+02	 7.428E+01	 1.109E+02	 6.974E+02	 1.580E+03	 1.586E+03	 1.843E-01	-2.243E-02	 6.058E+02	 6.699E+03	-1.931E+02
  11.900	 2.159E+01	 1.208E+01	 6.697E-01	 6.869E-01	 1.079E+01	-1.320E+02	 5.964E+02	 4.567E+00	 1.297E+02	 1.233E+02	 2.260E+02	 1.083E+01	 1.086E+02	 6.945E+02	 1.570E+03	 1.582E+03	 1.786E-01	-2.406E-02	 6.638E+02	 6.481E+03	-1.607E+02
  11.950	 2.154E+01	 1.205E+01	 6.686E-01	 7.390E-01	 7.915E+00	-1.872E+02	 5.771E+02	 5.099E+00	 1.315E+02	 1.505E+02	 2.122E+02	-6.493E+01	 1.393E+02	 7.027E+02	 1.585E+03	 1.579E+03	 1.721E-01	-2.572E-02	 7.197E+02	 6.225E+03	-1.338E+02
  12.000	 2.150E+01	 1.199E+01	 6.745E-01	 7.938E-01	 1.390E+01	-2.433E+02	 5.954E+02	 5.717E+00	 1.361E+02	 1.746E+02	 1.943E+02	-1.083E+02	 1.852E+02	 7.099E+02	 1.599E+03	 1.576E+03	 1.649E-01	-2.742E-02	 7.774E+02	 5.948E+03	-1.225E+02
  12.050	 2.148E+01	 1.198E+01	 6.989E-01	 8.375E-01	 1.949E+01	-3.010E+02	 6.361E+02	 6.348E+00	 1.451E+02	 1.969E+02	 1.734E+02	-1.415E+02	 2.344E+02	 7.256E+02	 1.632E+03	 1.575E+03	 1.577E-01	-2.917E-02	 8.332E+02	 5.660E+03	-1.052E+02
  12.100	 2.147E+01	 1.200E+01	 7.524E-01	 8.710E-01	 2.020E+01	-3.544E+02	 6.800E+02	 6.817E+00	 1.528E+02	 2.161E+02	 1.496E+02	-1.591E+02	 2.740E+02	 7.289E+02	 1.639E+03	 1.574E+03	 1.509E-01	-3.095E-02	 8.931E+02	 5.390E+03	-8.020E+01
  12.150	 2.146E+01	 1.201E+01	 8.326E-01	 8.978E-01	 1.420E+01	-3.962E+02	 7.110E+02	 7.356E+00	 1.574E+02	 2.328E+02	 1.237E+02	-1.695E+02	 3.112E+02	 7.270E+02	 1.634E+03	 1.573E+03	 1.448E-01	-3.278E-02	 9.561E+02	 5.158E+03	-4.950E+01
  12.200	 2.145E+01	 1.203E+01	 9.218E-01	 9.060E-01	 4.794E+00	-4.200E+02	 7.507E+02	 7.993E+00	 1.586E+02	 2.460E+02	 9.772E+01	-1.384E+02	 3.128E+02	 7.288E+02	 1.637E+03	 1.572E+03	 1.397E-01	-3.463E-02	 1.022E+03	 4.988E+03	-4.070E+01
  12.250	 2.145E+01	 1.206E+01	 9.963E-01	 9.042E-01	 4.993E-01	-4.286E+02	 8.129E+02	 8.447E+00	 1.595E+02	 2.564E+02	 7.080E+01	-6.213E+01	 2.891E+02	 7.406E+02	 1.663E+03	 1.572E+03	 1.356E-01	-3.645E-02	 1.086E+03	 4.878E+03	-7.285E+01
  12.300	 2.146E+01	 1.212E+01	 1.044E+00	 8.975E-01	 3.379E+00	-4.276E+02	 8.852E+02	 8.827E+00	 1.607E+02	 2.632E+02	 4.241E+01	 3.942E+01	 2.459E+02	 7.518E+02	 1.689E+03	 1.573E+03	 1.330E-01	-3.818E-02	 1.147E+03	 4.821E+03	-1.353E+02
  12.350	 2.147E+01	 1.217E+01	 1.071E+00	 8.872E-01	 7.228E+00	-4.192E+02	 9.266E+02	 9.079E+00	 1.588E+02	 2.648E+02	 1.232E+01	 1.258E+02	 1.922E+02	 7.418E+02	 1.668E+03	 1.574E+03	 1.318E-01	-3.980E-02	 1.207E+03	 4.808E+03	-1.894E+02
  12.400	 2.147E+01	 1.223E+01	 1.081E+00	 8.640E-01	 3.726E+00	-4.044E+02	 9.076E+02	 8.619E+00	 1.539E+02	 2.626E+02	-1.753E+01	 1.584E+02	 1.128E+02	 7.249E+02	 1.630E+03	 1.574E+03	 1.321E-01	-4.123E-02	 1.260E+03	 4.842E+03	-2.023E+02
  12.450	 2.145E+01	 1.224E+01	 1.068E+00	 8.174E-01	-1.058E+00	-3.766E+02	 8.652E+02	 8.461E+00	 1.486E+02	 2.552E+02	-4.595E+01	 1.806E+02	 3.379E+01	 7.169E+02	 1.610E+03	 1.572E+03	 1.335E-01	-4.242E-02	 1.304E+03	 4.908E+03	-2.227E+02
  12.500	 2.143E+01	 1.223E+01	 1.023E+00	 7.607E-01	 5.216E-01	-3.453E+02	 8.134E+02	 7.784E+00	 1.394E+02	 2.461E+02	-7.427E+01	 2.103E+02	 2.120E+01	 7.135E+02	 1.601E+03	 1.571E+03	 1.357E-01	-4.333E-02	 1.336E+03	 4.989E+03	-2.440E+02
  12.550	 2.140E+01	 1.221E+01	 9.510E-01	 7.026E-01	 3.830E+00	-3.144E+02	 7.692E+02	 7.212E+00	 1.304E+02	 2.352E+02	-1.020E+02	 2.441E+02	 5.134E+01	 7.157E+02	 1.604E+03	 1.569E+03	 1.383E-01	-4.396E-02	 1.357E+03	 5.076E+03	-2.509E+02
  12.600	 2.137E+01	 1.220E+01	 8.634E-01	 6.463E-01	 9.559E+00	-2.903E+02	 7.205E+02	 6.580E+00	 1.230E+02	 2.228E+02	-1.297E+02	 2.452E+02	 9.795E+01	 7.079E+02	 1.584E+03	 1.567E+03	 1.409E-01	-4.437E-02	 1.370E+03	 5.165E+03	-2.070E+02
  12.650	 2.133E+01	 1.215E+01	 7.775E-01	 5.941E-01	 1.652E+01	-2.704E+02	 6.552E+02	 6.060E+00	 1.210E+02	 2.081E+02	-1.554E+02	 1.769E+02	 1.270E+02	 7.003E+02	 1.564E+03	 1.564E+03	 1.435E-01	-4.459E-02	 1.374E+03	 5.257E+03	-1.081E+02
  12.700	 2.129E+01	 1.208E+01	 7.111E-01	 5.551E-01	 1.916E+01	-2.513E+02	 5.821E+02	 5.822E+00	 1.230E+02	 1.913E+02	-1.789E+02	 5.377E+01	 1.581E+02	 6.944E+02	 1.548E+03	 1.561E+03	 1.457E-01	-4.464E-02	 1.371E+03	 5.345E+03	 2.724E+01
  12.750	 2.124E+01	 1.201E+01	 6.723E-01	 5.389E-01	 2.163E+01	-2.310E+02	 5.327E+02	 5.475E+00	 1.282E+02	 1.735E+02	-2.005E+02	-7.092E+01	 2.057E+02	 7.012E+02	 1.560E+03	 1.557E+03	 1.476E-01	-4.449E-02	 1.360E+03	 5.425E+03	 1.573E+02
  12.800	 2.120E+01	 1.197E+01	 6.691E-01	 5.482E-01	 2.808E+01	-2.059E+02	 5.470E+02	 5.674E+00	 1.322E+02	 1.522E+02	-2.189E+02	-1.012E+02	 2.286E+02	 7.029E+02	 1.561E+03	 1.554E+03	 1.492E-01	-4.411E-02	 1.344E+03	 5.489E+03	 1.970E+02
  12.850	 2.116E+01	 1.191E+01	 7.170E-01	 5.788E-01	 3.365E+01	-1.719E+02	 6.130E+02	 5.835E+00	 1.337E+02	 1.284E+02	-2.340E+02	-4.512E+01	 2.052E+02	 7.049E+02	 1.562E+03	 1.551E+03	 1.504E-01	-4.346E-02	 1.321E+03	 5.536E+03	 1.487E+02
  12.900	 2.113E+01	 1.185E+01	 8.243E-01	 6.179E-01	 2.647E+01	-1.276E+02	 7.060E+02	 5.956E+00	 1.347E+02	 1.023E+02	-2.452E+02	 4.681E+01	 1.240E+02	 7.065E+02	 1.563E+03	 1.549E+03	 1.516E-01	-4.251E-02	 1.290E+03	 5.570E+03	 4.033E+01
  12.950	 2.110E+01	 1.181E+01	 9.703E-01	 6.635E-01	 1.379E+01	-7.388E+01	 8.209E+02	 5.990E+00	 1.394E+02	 7.437E+01	-2.529E+02	 1.364E+02	 4.178E+01	 7.176E+02	 1.586E+03	 1.547E+03	 1.527E-01	-4.125E-02	 1.244E+03	 5.589E+03	-5.654E+01
  13.000	 2.109E+01	 1.180E+01	 1.123E+00	 7.224E-01	 9.183E+00	-1.647E+01	 9.594E+02	 6.039E+00	 1.479E+02	 4.482E+01	-2.575E+02	 2.340E+02	-1.530E+01	 7.295E+02	 1.611E+03	 1.546E+03	 1.541E-01	-3.972E-02	 1.186E+03	 5.599E+03	-1.128E+02
  13.050	 2.108E+01	 1.255E+01	 1.260E+00	 7.920E-01	 4.588E+00	 3.545E+01	 1.093E+03	 5.584E+00	 1.569E+02	 1.420E+01	-2.597E+02	 3.188E+02	-3.628E+01	 7.383E+02	 1.630E+03	 1.545E+03	 1.559E-01	-3.800E-02	 1.118E+03	 5.626E+03	-1.091E+02
  13.100	 2.108E+01	 1.338E+01	 1.372E+00	 8.599E-01	-7.955E+00	 8.366E+01	 1.186E+03	 5.023E+00	 1.612E+02	-1.700E+01	-2.591E+02	 3.829E+02	-5.718E+01	 7.347E+02	 1.622E+03	 1.546E+03	 1.585E-01	-3.619E-02	 1.050E+03	 5.693E+03	-8.400E+01
  13.150	 2.108E+01	 1.421E+01	 1.428E+00	 9.146E-01	-2.433E+01	 1.291E+02	 1.212E+03	 4.459E+00	 1.614E+02	-4.733E+01	-2.566E+02	 3.900E+02	-9.193E+01	 7.313E+02	 1.615E+03	 1.545E+03	 1.619E-01	-3.441E-02	 9.845E+02	 5.816E+03	-6.893E+01
  13.200	 2.108E+01	 1.504E+01	 1.392E+00	 9.524E-01	-2.661E+01	 1.670E+02	 1.166E+03	 3.522E+00	 1.602E+02	-7.502E+01	-2.523E+02	 3.111E+02	-1.233E+02	 7.356E+02	 1.623E+03	 1.545E+03	 1.661E-01	-3.273E-02	 9.255E+02	 5.995E+03	-7.887E+01
  13.250	 2.108E+01	 1.587E+01	 1.260E+00	 9.736E-01	-1.886E+01	 1.985E+02	 1.053E+03	 2.682E+00	 1.581E+02	-1.008E+02	-2.457E+02	 1.530E+02	-1.257E+02	 7.395E+02	 1.632E+03	 1.545E+03	 1.708E-01	-3.115E-02	 8.739E+02	 6.220E+03	-1.104E+02
  13.300	 2.108E+01	 1.670E+01	 1.052E+00	 9.811E-01	-9.355E+00	 2.235E+02	 8.707E+02	 1.959E+00	 1.547E+02	-1.237E+02	-2.353E+02	-7.930E+01	-1.119E+02	 7.338E+02	 1.620E+03	 1.545E+03	 1.758E-01	-2.965E-02	 8.292E+02	 6.469E+03	-1.974E+02
  13.350	 2.106E+01	 1.753E+01	 7.963E-01	 9.809E-01	-1.475E+00	 2.496E+02	 6.436E+02	 1.394E+00	 1.462E+02	-1.442E+02	-2.207E+02	-3.318E+02	-9.504E+01	 7.107E+02	 1.567E+03	 1.544E+03	 1.807E-01	-2.810E-02	 7.871E+02	 6.710E+03	-3.361E+02
  13.400	 2.102E+01	 1.836E+01	 5.181E-01	 9.758E-01	 2.762E+00	 2.803E+02	 4.123E+02	 9.620E-01	 1.373E+02	-1.613E+02	-2.014E+02	-5.808E+02	-9.368E+01	 6.986E+02	 1.538E+03	 1.541E+03	 1.850E-01	-2.635E-02	 7.355E+02	 6.908E+03	-5.280E+02
  13.450	 2.097E+01	 1.919E+01	 2.382E-01	 9.626E-01	 1.366E+01	 3.183E+02	 2.256E+02	 5.028E-01	 1.306E+02	-1.769E+02	-1.799E+02	-7.837E+02	-9.388E+01	 6.961E+02	 1.529E+03	 1.537E+03	 1.882E-01	-2.430E-02	 6.694E+02	 7.038E+03	-7.201E+02
  13.500	 2.093E+01	 2.002E+01	-1.454E-02	 9.465E-01	 1.598E+01	 3.610E+02	 7.639E+01	 3.154E-01	 1.251E+02	-1.908E+02	-1.559E+02	-9.539E+02	-1.002E+02	 6.940E+02	 1.521E+03	 1.534E+03	 1.899E-01	-2.192E-02	 5.893E+02	 7.091E+03	-9.066E+02
  13.550	 2.087E+01	 2.085E+01	-2.256E-01	 9.396E-01	 8.801E+00	 4.093E+02	-4.478E+01	 2.710E-01	 1.202E+02	-2.035E+02	-1.305E+02	-1.101E+03	-9.861E+01	 6.890E+02	 1.506E+03	 1.530E+03	 1.899E-01	-1.927E-02	 4.975E+02	 7.067E+03	-1.076E+03
  13.600	 2.081E+01	 2.168E+01	-4.056E-01	 9.519E-01	-9.415E+00	 4.579E+02	-1.537E+02	 1.620E-01	 1.170E+02	-2.138E+02	-1.046E+02	-1.251E+03	-8.571E+01	 6.791E+02	 1.480E+03	 1.526E+03	 1.880E-01	-1.643E-02	 4.000E+02	 6.969E+03	-1.247E+03
  13.650	 2.074E+01	 2.251E+01	-5.856E-01	 9.854E-01	-1.312E+01	 5.219E+02	-2.474E+02	 6.754E-01	 1.133E+02	-2.241E+02	-7.935E+01	-1.391E+03	-6.542E+01	 6.752E+02	 1.467E+03	 1.520E+03	 1.840E-01	-1.347E-02	 2.983E+02	 6.797E+03	-1.409E+03
  13.700	 2.067E+01	 2.334E+01	-7.740E-01	 1.035E+00	-1.050E+01	 5.977E+02	-3.589E+02	 1.124E+00	 1.097E+02	-2.322E+02	-5.397E+01	-1.570E+03	-7.245E+01	 6.804E+02	 1.473E+03	 1.515E+03	 1.782E-01	-1.050E-02	 1.973E+02	 6.549E+03	-1.615E+03
  13.750	 2.060E+01	 2.417E+01	-9.628E-01	 1.093E+00	-1.620E+01	 6.817E+02	-5.123E+02	 2.317E+00	 1.003E+02	-2.379E+02	-2.905E+01	-1.784E+03	-9.489E+01	 6.721E+02	 1.450E+03	 1.510E+03	 1.705E-01	-7.608E-03	 1.046E+02	 6.225E+03	-1.850E+03
  13.800	 2.052E+01	 2.500E+01	-1.150E+00	 1.161E+00	-2.304E+01	 7.473E+02	-6.980E+02	 3.200E+00	 8.952E+01	-2.379E+02	-4.203E+00	-2.030E+03	-1.372E+02	 6.624E+02	 1.424E+03	 1.505E+03	 1.610E-01	-4.829E-03	 1.737E+01	 5.817E+03	-2.096E+03
  13.850	 2.043E+01	 2.583E+01	-1.342E+00	 1.243E+00	-2.083E+01	 7.674E+02	-8.553E+02	 4.828E+00	 8.144E+01	-2.331E+02	 2.079E+01	-2.218E+03	-1.913E+02	 6.436E+02	 1.377E+03	 1.491E+03	 1.499E-01	-2.178E-03	-6.542E+01	 5.327E+03	-2.248E+03
  13.900	 2.031E+01	 2.666E+01	-1.525E+00	 1.336E+00	-7.204E+00	 7.452E+02	-9.749E+02	 5.662E+00	 7.477E+01	-2.242E+02	 4.520E+01	-2.340E+03	-2.339E+02	 6.254E+02	 1.330E+03	 1.467E+03	 1.374E-01	 3.017E-04	-1.454E+02	 4.777E+03	-2.296E+03
  13.950	 2.020E+01	 2.749E+01	-1.664E+00	 1.431E+00	 9.219E+00	 6.821E+02	-1.082E+03	 5.450E+00	 7.045E+01	-2.103E+02	 6.957E+01	-2.448E+03	-2.602E+02	 6.095E+02	 1.289E+03	 1.442E+03	 1.237E-01	 2.512E-03	-2.199E+02	 4.185E+03	-2.287E+03
  14.000	 2.007E+01	 2.832E+01	-1.732E+00	 1.516E+00	-2.115E+00	 5.911E+02	-1.179E+03	 4.968E+00	 6.889E+01	-1.932E+02	 9.293E+01	-2.557E+03	-2.324E+02	 5.943E+02	 1.249E+03	 1.415E+03	 1.093E-01	 4.288E-03	-2.813E+02	 3.581E+03	-2.261E+03
  14.050	 1.993E+01	 2.915E+01	-1.748E+00	 1.589E+00	-3.574E+00	 4.930E+02	-1.234E+03	 3.282E+00	 7.007E+01	-1.755E+02	 1.173E+02	-2.635E+03	-1.913E+02	 5.778E+02	 1.206E+03	 1.385E+03	 9.454E-02	 5.409E-03	-3.211E+02	 2.986E+03	-2.178E+03
  14.100	 1.980E+01	 2.998E+01	-1.725E+00	 1.658E+00	 7.899E-01	 4.104E+02	-1.221E+03	 2.040E+00	 7.405E+01	-1.606E+02	 1.423E+02	-2.637E+03	-1.523E+02	 5.790E+02	 1.200E+03	 1.358E+03	 8.015E-02	 5.599E-03	-3.318E+02	 2.428E+03	-2.014E+03
  14.150	 1.966E+01	 3.081E+01	-1.662E+00	 1.716E+00	-4.633E+00	 3.567E+02	-1.194E+03	 7.309E-01	 7.242E+01	-1.448E+02	 1.667E+02	-2.600E+03	-1.180E+02	 5.625E+02	 1.158E+03	 1.331E+03	 6.674E-02	 4.591E-03	-2.945E+02	 1.926E+03	-1.803E+03
  14.200	 1.953E+01	 3.164E+01	-1.573E+00	 1.756E+00	-1.621E+01	 3.370E+02	-1.133E+03	 3.769E-01	 7.048E+01	-1.302E+02	 1.902E+02	-2.527E+03	-1.007E+02	 5.548E+02	 1.135E+03	 1.304E+03	 5.475E-02	 2.185E-03	-2.067E+02	 1.488E+03	-1.556E+03
  14.250	 1.940E+01	 3.247E+01	-1.481E+00	 1.772E+00	-1.829E+01	 3.413E+02	-1.061E+03	 2.759E-01	 7.217E+01	-1.145E+02	 2.105E+02	-2.466E+03	-8.451E+01	 5.516E+02	 1.121E+03	 1.277E+03	 4.447E-02	-1.709E-03	-6.370E+01	 1.115E+03	-1.323E+03
  14.300	 1.927E+01	 3.330E+01	-1.391E+00	 1.776E+00	-2.295E+01	 3.582E+02	-9.987E+02	 3.855E-01	 7.224E+01	-9.683E+01	 2.279E+02	-2.413E+03	-7.731E+01	 5.512E+02	 1.113E+03	 1.253E+03	 3.615E-02	-7.062E-03	 1.317E+02	 8.180E+02	-1.090E+03
  14.350	 1.916E+01	 3.413E+01	-1.310E+00	 1.771E+00	-3.198E+01	 3.625E+02	-9.506E+02	 3.115E-01	 7.270E+01	-7.602E+01	 2.419E+02	-2.364E+03	-6.679E+01	 5.485E+02	 1.100E+03	 1.231E+03	 2.998E-02	-1.376E-02	 3.748E+02	 6.034E+02	-8.606E+02
  14.400	 1.904E+01	 3.496E+01	-1.251E+00	 1.749E+00	-3.597E+01	 3.484E+02	-9.212E+02	-1.216E-01	 7.128E+01	-5.303E+01	 2.520E+02	-2.303E+03	-6.346E+01	 5.422E+02	 1.081E+03	 1.209E+03	 2.607E-02	-2.167E-02	 6.595E+02	 4.801E+02	-6.225E+02
  14.450	 1.893E+01	 3.579E+01	-1.219E+00	 1.706E+00	-2.934E+01	 3.005E+02	-9.227E+02	-6.555E-01	 7.316E+01	-2.561E+01	 2.584E+02	-2.263E+03	-6.366E+01	 5.286E+02	 1.048E+03	 1.187E+03	 2.455E-02	-3.061E-02	 9.795E+02	 4.404E+02	-3.823E+02
  14.500	 1.880E+01	 3.662E+01	-1.203E+00	 1.659E+00	-2.974E+01	 2.312E+02	-9.612E+02	-1.226E+00	 7.226E+01	 4.206E+00	 2.619E+02	-2.219E+03	-6.184E+01	 5.048E+02	 9.938E+02	 1.163E+03	 2.546E-02	-4.046E-02	 1.332E+03	 4.962E+02	-1.412E+02
  14.550	 1.866E+01	 3.745E+01	-1.207E+00	 1.612E+00	-2.946E+01	 1.537E+02	-1.011E+03	-1.622E+00	 7.182E+01	 3.477E+01	 2.625E+02	-2.163E+03	-4.375E+01	 4.933E+02	 9.641E+02	 1.138E+03	 2.871E-02	-5.113E-02	 1.711E+03	 6.426E+02	 7.647E+01
  14.600	 1.853E+01	 3.828E+01	-1.232E+00	 1.558E+00	-2.622E+01	 8.545E+01	-1.068E+03	-2.346E+00	 6.873E+01	 6.473E+01	 2.605E+02	-2.106E+03	-5.054E+01	 4.914E+02	 9.534E+02	 1.113E+03	 3.409E-02	-6.257E-02	 2.114E+03	 8.725E+02	 3.038E+02
  14.650	 1.839E+01	 3.911E+01	-1.273E+00	 1.502E+00	-2.143E+01	 2.538E+01	-1.136E+03	-2.803E+00	 6.995E+01	 9.536E+01	 2.571E+02	-2.096E+03	-7.749E+01	 4.788E+02	 9.221E+02	 1.089E+03	 4.137E-02	-7.469E-02	 2.543E+03	 1.164E+03	 5.473E+02
  14.700	 1.825E+01	 3.994E+01	-1.323E+00	 1.471E+00	-1.690E+01	-1.063E+01	-1.217E+03	-2.814E+00	 7.050E+01	 1.253E+02	 2.512E+02	-2.128E+03	-7.501E+01	 4.596E+02	 8.785E+02	 1.064E+03	 5.032E-02	-8.740E-02	 2.993E+03	 1.509E+03	 7.640E+02
  14.750	 1.810E+01	 4.077E+01	-1.372E+00	 1.475E+00	-1.160E+01	-2.600E+01	-1.297E+03	-2.462E+00	 7.087E+01	 1.534E+02	 2.417E+02	-2.189E+03	-1.705E+01	 4.415E+02	 8.369E+02	 1.038E+03	 6.071E-02	-1.005E-01	 3.460E+03	 1.893E+03	 9.339E+02
  14.800	 1.795E+01	 4.160E+01	-1.408E+00	 1.501E+00	-1.297E+01	-3.139E+01	-1.372E+03	-2.045E+00	 7.591E+01	 1.805E+02	 2.318E+02	-2.286E+03	 2.852E+01	 4.307E+02	 8.094E+02	 1.012E+03	 7.234E-02	-1.139E-01	 3.933E+03	 2.311E+03	 1.132E+03
  14.850	 1.779E+01	 4.243E+01	-1.429E+00	 1.530E+00	-1.254E+01	-3.106E+01	-1.418E+03	-1.636E+00	 8.258E+01	 2.047E+02	 2.173E+02	-2.384E+03	 9.296E+01	 4.350E+02	 8.105E+02	 9.862E+02	 8.509E-02	-1.273E-01	 4.403E+03	 2.762E+03	 1.320E+03
  14.900	 1.765E+01	 4.326E+01	-1.434E+00	 1.562E+00	-8.911E+00	-3.897E+01	-1.445E+03	-1.668E+00	 9.220E+01	 2.272E+02	 2.014E+02	-2.475E+03	 1.393E+02	 4.245E+02	 7.846E+02	 9.620E+02	 9.885E-02	-1.405E-01	 4.865E+03	 3.254E+03	 1.527E+03
  14.950	 1.750E+01	 4.409E+01	-1.415E+00	 1.597E+00	-9.523E+00	-6.186E+01	-1.453E+03	-1.803E+00	 1.035E+02	 2.484E+02	 1.842E+02	-2.538E+03	 1.918E+02	 4.152E+02	 7.610E+02	 9.389E+02	 1.135E-01	-1.531E-01	 5.307E+03	 3.791E+03	 1.715E+03
  15.000	 1.736E+01	 4.492E+01	-1.374E+00	 1.641E+00	-1.145E+01	-9.635E+01	-1.442E+03	-2.387E+00	 1.105E+02	 2.668E+02	 1.643E+02	-2.538E+03	 2.701E+02	 4.028E+02	 7.322E+02	 9.160E+02	 1.290E-01	-1.649E-01	 5.718E+03	 4.374E+03	 1.839E+03
  15.050	 1.723E+01	 4.500E+01	-1.336E+00	 1.688E+00	-1.075E+01	-1.409E+02	-1.417E+03	-2.979E+00	 1.167E+02	 2.827E+02	 1.442E+02	-2.516E+03	 3.109E+02	 4.182E+02	 7.544E+02	 8.947E+02	 1.451E-01	-1.756E-01	 6.083E+03	 4.998E+03	 1.954E+03
  15.100	 1.711E+01	 4.500E+01	-1.285E+00	 1.732E+00	-1.329E+01	-1.961E+02	-1.398E+03	-3.870E+00	 1.228E+02	 2.974E+02	 1.224E+02	-2.483E+03	 3.113E+02	 4.158E+02	 7.449E+02	 8.761E+02	 1.616E-01	-1.848E-01	 6.398E+03	 5.647E+03	 2.074E+03
  15.150	 1.699E+01	 4.500E+01	-1.228E+00	 1.776E+00	-1.893E+01	-2.463E+02	-1.383E+03	-4.780E+00	 1.301E+02	 3.098E+02	 9.986E+01	-2.467E+03	 2.661E+02	 4.129E+02	 7.347E+02	 8.590E+02	 1.782E-01	-1.923E-01	 6.651E+03	 6.306E+03	 2.207E+03
  15.200	 1.689E+01	 4.500E+01	-1.179E+00	 1.825E+00	-2.315E+01	-2.847E+02	-1.354E+03	-5.197E+00	 1.382E+02	 3.175E+02	 7.632E+01	-2.450E+03	 2.039E+02	 4.180E+02	 7.393E+02	 8.435E+02	 1.946E-01	-1.978E-01	 6.830E+03	 6.957E+03	 2.316E+03
  15.250	 1.680E+01	 4.500E+01	-1.148E+00	 1.879E+00	-2.230E+01	-3.064E+02	-1.325E+03	-5.638E+00	 1.452E+02	 3.217E+02	 5.212E+01	-2.444E+03	 1.435E+02	 4.213E+02	 7.412E+02	 8.298E+02	 2.105E-01	-2.010E-01	 6.928E+03	 7.585E+03	 2.405E+03
  15.300	 1.671E+01	 4.500E+01	-1.136E+00	 1.936E+00	-1.920E+01	-3.131E+02	-1.306E+03	-5.605E+00	 1.533E+02	 3.236E+02	 2.782E+01	-2.454E+03	 8.625E+01	 4.168E+02	 7.293E+02	 8.168E+02	 2.255E-01	-2.018E-01	 6.940E+03	 8.180E+03	 2.480E+03
  15.350	 1.662E+01	 4.500E+01	-1.137E+00	 2.001E+00	-1.782E+01	-3.022E+02	-1.309E+03	-5.416E+00	 1.568E+02	 3.235E+02	 3.809E+00	-2.474E+03	 3.429E+01	 4.055E+02	 7.058E+02	 8.038E+02	 2.393E-01	-2.000E-01	 6.860E+03	 8.734E+03	 2.537E+03
  15.400	 1.653E+01	 4.500E+01	-1.147E+00	 2.062E+00	-1.867E+01	-2.822E+02	-1.332E+03	-5.145E+00	 1.570E+02	 3.224E+02	-1.896E+01	-2.500E+03	-1.649E+01	 3.971E+02	 6.874E+02	 7.906E+02	 2.515E-01	-1.954E-01	 6.683E+03	 9.232E+03	 2.570E+03
  15.450	 1.644E+01	 4.500E+01	-1.163E+00	 2.105E+00	-1.922E+01	-2.650E+02	-1.342E+03	-4.262E+00	 1.584E+02	 3.184E+02	-4.018E+01	-2.508E+03	-6.869E+01	 4.130E+02	 7.113E+02	 7.783E+02	 2.615E-01	-1.880E-01	 6.402E+03	 9.654E+03	 2.551E+03
  15.500	 1.637E+01	 4.500E+01	-1.181E+00	 2.127E+00	-1.438E+01	-2.614E+02	-1.344E+03	-4.151E+00	 1.589E+02	 3.133E+02	-6.056E+01	-2.498E+03	-1.124E+02	 4.125E+02	 7.071E+02	 7.681E+02	 2.691E-01	-1.777E-01	 6.023E+03	 9.982E+03	 2.489E+03
  15.550	 1.630E+01	 4.500E+01	-1.191E+00	 2.125E+00	-9.733E+00	-2.727E+02	-1.325E+03	-4.224E+00	 1.628E+02	 3.067E+02	-8.058E+01	-2.478E+03	-1.160E+02	 4.035E+02	 6.888E+02	 7.582E+02	 2.740E-01	-1.646E-01	 5.546E+03	 1.019E+04	 2.402E+03
  15.600	 1.622E+01	 4.500E+01	-1.189E+00	 2.100E+00	-4.397E+00	-2.905E+02	-1.298E+03	-4.711E+00	 1.660E+02	 2.981E+02	-9.965E+01	-2.435E+03	-1.183E+02	 3.853E+02	 6.544E+02	 7.471E+02	 2.759E-01	-1.487E-01	 4.973E+03	 1.029E+04	 2.279E+03
  15.650	 1.612E+01	 4.500E+01	-1.168E+00	 2.068E+00	-6.217E+00	-3.048E+02	-1.266E+03	-4.833E+00	 1.635E+02	 2.872E+02	-1.168E+02	-2.355E+03	-1.074E+02	 3.705E+02	 6.255E+02	 7.336E+02	 2.749E-01	-1.301E-01	 4.307E+03	 1.027E+04	 2.109E+03
  15.700	 1.602E+01	 4.500E+01	-1.134E+00	 2.033E+00	-1.173E+01	-3.109E+02	-1.228E+03	-4.769E+00	 1.617E+02	 2.767E+02	-1.325E+02	-2.278E+03	-7.486E+01	 3.727E+02	 6.254E+02	 7.202E+02	 2.707E-01	-1.089E-01	 3.551E+03	 1.013E+04	 1.940E+03
  15.750	 1.595E+01	 4.500E+01	-1.096E+00	 1.991E+00	-1.092E+01	-3.062E+02	-1.173E+03	-4.693E+00	 1.606E+02	 2.652E+02	-1.466E+02	-2.213E+03	-3.895E+01	 3.904E+02	 6.520E+02	 7.097E+02	 2.633E-01	-8.553E-02	 2.713E+03	 9.864E+03	 1.777E+03
  15.800	 1.589E+01	 4.500E+01	-1.052E+00	 1.939E+00	-9.954E+00	-2.947E+02	-1.118E+03	-4.416E+00	 1.610E+02	 2.528E+02	-1.605E+02	-2.177E+03	-4.024E+00	 3.943E+02	 6.560E+02	 7.019E+02	 2.527E-01	-6.020E-02	 1.808E+03	 9.493E+03	 1.641E+03
  15.850	 1.582E+01	 4.500E+01	-1.002E+00	 1.888E+00	-1.274E+01	-2.795E+02	-1.069E+03	-4.424E+00	 1.601E+02	 2.398E+02	-1.741E+02	-2.149E+03	 3.959E+01	 3.802E+02	 6.300E+02	 6.935E+02	 2.393E-01	-3.325E-02	 8.494E+02	 9.019E+03	 1.516E+03
  15.900	 1.575E+01	 4.500E+01	-9.524E-01	 1.847E+00	-1.808E+01	-2.579E+02	-1.011E+03	-4.076E+00	 1.565E+02	 2.256E+02	-1.871E+02	-2.099E+03	 8.294E+01	 3.738E+02	 6.165E+02	 6.841E+02	 2.231E-01	-5.076E-03	-1.510E+02	 8.447E+03	 1.375E+03
  15.950	 1.568E+01	 4.500E+01	-9.133E-01	 1.817E+00	-2.023E+01	-2.325E+02	-9.562E+02	-3.894E+00	 1.518E+02	 2.113E+02	-1.983E+02	-2.045E+03	 8.882E+01	 3.718E+02	 6.104E+02	 6.745E+02	 2.046E-01	 2.390E-02	-1.174E+03	 7.791E+03	 1.201E+03
  16.000	 1.561E+01	 4.500E+01	-8.876E-01	 1.795E+00	-1.732E+01	-2.054E+02	-9.096E+02	-3.784E+00	 1.490E+02	 1.973E+02	-2.085E+02	-2.011E+03	 8.065E+01	 3.769E+02	 6.162E+02	 6.662E+02	 1.839E-01	 5.322E-02	-2.207E+03	 7.060E+03	 1.024E+03
  16.050	 1.555E+01	 4.500E+01	-8.705E-01	 1.777E+00	-1.612E+01	-1.794E+02	-8.895E+02	-3.664E+00	 1.454E+02	 1.836E+02	-2.181E+02	-2.003E+03	 6.690E+01	 3.717E+02	 6.054E+02	 6.586E+02	 1.613E-01	 8.241E-02	-3.228E+03	 6.270E+03	 8.518E+02
  16.100	 1.548E+01	 4.500E+01	-8.607E-01	 1.767E+00	-2.069E+01	-1.557E+02	-8.997E+02	-3.325E+00	 1.386E+02	 1.701E+02	-2.268E+02	-2.003E+03	 3.475E+01	 3.531E+02	 5.725E+02	 6.497E+02	 1.371E-01	 1.110E-01	-4.223E+03	 5.432E+03	 6.599E+02
  16.150	 1.540E+01	 4.500E+01	-8.649E-01	 1.767E+00	-2.013E+01	-1.340E+02	-9.231E+02	-3.338E+00	 1.298E+02	 1.574E+02	-2.357E+02	-1.998E+03	 6.316E+00	 3.417E+02	 5.509E+02	 6.391E+02	 1.117E-01	 1.386E-01	-5.183E+03	 4.549E+03	 4.604E+02
  16.200	 1.531E+01	 4.500E+01	-8.846E-01	 1.773E+00	-1.601E+01	-1.108E+02	-9.360E+02	-3.284E+00	 1.205E+02	 1.435E+02	-2.428E+02	-1.981E+03	-4.530E+01	 3.435E+02	 5.508E+02	 6.283E+02	 8.521E-02	 1.649E-01	-6.097E+03	 3.626E+03	 2.313E+02
  16.250	 1.524E+01	 4.500E+01	-9.146E-01	 1.779E+00	-9.718E+00	-8.372E+01	-9.449E+02	-3.195E+00	 1.135E+02	 1.282E+02	-2.494E+02	-1.984E+03	-8.336E+01	 3.447E+02	 5.499E+02	 6.191E+02	 5.802E-02	 1.896E-01	-6.950E+03	 2.673E+03	 2.182E+01
  16.300	 1.516E+01	 4.500E+01	-9.468E-01	 1.781E+00	-9.830E+00	-5.427E+01	-9.730E+02	-3.116E+00	 1.094E+02	 1.130E+02	-2.542E+02	-2.031E+03	-1.367E+02	 3.299E+02	 5.236E+02	 6.095E+02	 3.050E-02	 2.122E-01	-7.725E+03	 1.710E+03	-1.995E+02
  16.350	 1.506E+01	 4.500E+01	-9.798E-01	 1.783E+00	-1.001E+01	-1.953E+01	-1.007E+03	-2.941E+00	 1.039E+02	 9.721E+01	-2.578E+02	-2.084E+03	-1.795E+02	 3.085E+02	 4.865E+02	 5.979E+02	 3.052E-03	 2.326E-01	-8.415E+03	 7.480E+02	-4.152E+02
  16.400	 1.495E+01	 4.500E+01	-1.014E+00	 1.784E+00	-9.732E+00	 2.185E+01	-1.032E+03	-2.620E+00	 9.505E+01	 8.010E+01	-2.602E+02	-2.110E+03	-2.150E+02	 2.897E+02	 4.534E+02	 5.846E+02	-2.398E-02	 2.503E-01	-9.014E+03	-2.027E+02	-6.246E+02
  16.450	 1.483E+01	 4.500E+01	-1.046E+00	 1.778E+00	-6.072E+00	 6.694E+01	-1.036E+03	-1.660E+00	 9.030E+01	 6.216E+01	-2.625E+02	-2.139E+03	-2.340E+02	 2.895E+02	 4.497E+02	 5.712E+02	-5.023E-02	 2.653E-01	-9.517E+03	-1.125E+03	-8.169E+02
  16.500	 1.472E+01	 4.500E+01	-1.073E+00	 1.770E+00	-3.081E+00	 1.115E+02	-1.023E+03	-1.136E+00	 8.392E+01	 4.271E+01	-2.642E+02	-2.144E+03	-2.146E+02	 2.910E+02	 4.487E+02	 5.587E+02	-7.524E-02	 2.772E-01	-9.912E+03	-2.006E+03	-9.618E+02
  16.550	 1.462E+01	 4.500E+01	-1.087E+00	 1.762E+00	-2.620E-01	 1.504E+02	-1.002E+03	-5.338E-01	 7.822E+01	 2.241E+01	-2.638E+02	-2.137E+03	-1.813E+02	 2.882E+02	 4.413E+02	 5.470E+02	-9.855E-02	 2.857E-01	-1.019E+04	-2.833E+03	-1.082E+03
  16.600	 1.452E+01	 4.500E+01	-1.085E+00	 1.752E+00	 1.353E+00	 1.811E+02	-9.812E+02	-3.744E-01	 7.318E+01	 2.538E+00	-2.609E+02	-2.128E+03	-1.515E+02	 2.814E+02	 4.278E+02	 5.354E+02	-1.198E-01	 2.908E-01	-1.034E+04	-3.592E+03	-1.198E+03
  16.650	 1.441E+01	 4.500E+01	-1.063E+00	 1.736E+00	 7.843E-01	 2.043E+02	-9.500E+02	-3.895E-01	 6.886E+01	-1.747E+01	-2.563E+02	-2.107E+03	-1.399E+02	 2.778E+02	 4.193E+02	 5.241E+02	-1.385E-01	 2.922E-01	-1.037E+04	-4.270E+03	-1.317E+03
  16.700	 1.432E+01	 4.500E+01	-1.025E+00	 1.716E+00	-7.087E+00	 2.191E+02	-9.135E+02	-5.388E-01	 6.452E+01	-3.660E+01	-2.502E+02	-2.077E+03	-1.441E+02	 2.796E+02	 4.191E+02	 5.136E+02	-1.545E-01	 2.900E-01	-1.026E+04	-4.852E+03	-1.437E+03
  16.750	 1.423E+01	 4.500E+01	-9.838E-01	 1.696E+00	-1.131E+01	 2.281E+02	-8.680E+02	-8.589E-01	 6.210E+01	-5.554E+01	-2.430E+02	-2.045E+03	-1.149E+02	 2.850E+02	 4.246E+02	 5.040E+02	-1.675E-01	 2.841E-01	-1.002E+04	-5.320E+03	-1.515E+03
  16.800	 1.414E+01	 4.500E+01	-9.474E-01	 1.660E+00	-1.109E+01	 2.381E+02	-8.095E+02	-9.717E-01	 6.053E+01	-7.631E+01	-2.345E+02	-2.001E+03	-6.365E+01	 2.837E+02	 4.203E+02	 4.954E+02	-1.771E-01	 2.746E-01	-9.661E+03	-5.664E+03	-1.552E+03
  16.850	 1.406E+01	 4.500E+01	-9.198E-01	 1.598E+00	-1.125E+01	 2.533E+02	-7.594E+02	-9.633E-01	 6.085E+01	-9.667E+01	-2.246E+02	-1.977E+03	 6.624E+00	 2.727E+02	 4.016E+02	 4.867E+02	-1.830E-01	 2.614E-01	-9.172E+03	-5.870E+03	-1.577E+03
  16.900	 1.397E+01	 4.500E+01	-9.029E-01	 1.518E+00	-8.034E+00	 2.798E+02	-7.190E+02	-1.070E+00	 6.034E+01	-1.162E+02	-2.126E+02	-1.956E+03	 9.093E+01	 2.642E+02	 3.866E+02	 4.773E+02	-1.852E-01	 2.449E-01	-8.565E+03	-5.936E+03	-1.590E+03
  16.950	 1.387E+01	 4.500E+01	-8.930E-01	 1.427E+00	-7.802E+00	 3.147E+02	-6.939E+02	-7.493E-01	 5.640E+01	-1.340E+02	-1.982E+02	-1.924E+03	 1.696E+02	 2.560E+02	 3.719E+02	 4.675E+02	-1.835E-01	 2.252E-01	-7.847E+03	-5.865E+03	-1.594E+03
  17.000	 1.378E+01	 4.500E+01	-8.867E-01	 1.333E+00	-8.040E+00	 3.520E+02	-6.700E+02	-5.519E-01	 5.210E+01	-1.504E+02	-1.827E+02	-1.880E+03	 2.449E+02	 2.604E+02	 3.759E+02	 4.585E+02	-1.780E-01	 2.027E-01	-7.030E+03	-5.662E+03	-1.591E+03
  17.050	 1.370E+01	 4.500E+01	-8.804E-01	 1.240E+00	-8.472E+00	 3.835E+02	-6.535E+02	-3.897E-01	 4.736E+01	-1.651E+02	-1.654E+02	-1.834E+03	 2.961E+02	 2.595E+02	 3.723E+02	 4.502E+02	-1.690E-01	 1.775E-01	-6.123E+03	-5.341E+03	-1.594E+03
  17.100	 1.362E+01	 4.500E+01	-8.711E-01	 1.161E+00	-4.852E+00	 4.021E+02	-6.289E+02	-1.906E-02	 4.734E+01	-1.787E+02	-1.466E+02	-1.795E+03	 3.359E+02	 2.614E+02	 3.729E+02	 4.427E+02	-1.568E-01	 1.502E-01	-5.140E+03	-4.911E+03	-1.601E+03
  17.150	 1.354E+01	 4.500E+01	-8.524E-01	 1.105E+00	-5.111E+00	 4.015E+02	-6.015E+02	-3.197E-01	 4.821E+01	-1.900E+02	-1.261E+02	-1.747E+03	 3.716E+02	 2.514E+02	 3.566E+02	 4.349E+02	-1.416E-01	 1.210E-01	-4.095E+03	-4.382E+03	-1.593E+03
  17.200	 1.346E+01	 4.500E+01	-8.260E-01	 1.071E+00	-1.161E+01	 3.878E+02	-5.563E+02	-3.490E-01	 5.032E+01	-2.002E+02	-1.044E+02	-1.681E+03	 3.800E+02	 2.473E+02	 3.486E+02	 4.270E+02	-1.237E-01	 9.045E-02	-3.006E+03	-3.765E+03	-1.571E+03
  17.250	 1.338E+01	 4.500E+01	-8.002E-01	 1.059E+00	-7.323E+00	 3.685E+02	-5.067E+02	-9.444E-01	 5.398E+01	-2.086E+02	-8.161E+01	-1.617E+03	 3.386E+02	 2.449E+02	 3.431E+02	 4.190E+02	-1.033E-01	 5.892E-02	-1.887E+03	-3.073E+03	-1.551E+03
  17.300	 1.330E+01	 4.500E+01	-7.731E-01	 1.070E+00	-6.483E+00	 3.537E+02	-4.713E+02	-1.049E+00	 5.854E+01	-2.144E+02	-5.852E+01	-1.577E+03	 2.940E+02	 2.443E+02	 3.402E+02	 4.115E+02	-8.052E-02	 2.688E-02	-7.519E+02	-2.304E+03	-1.543E+03
  17.350	 1.322E+01	 4.500E+01	-7.456E-01	 1.103E+00	-1.004E+01	 3.455E+02	-4.555E+02	-1.106E+00	 6.258E+01	-2.171E+02	-3.480E+01	-1.563E+03	 2.520E+02	 2.428E+02	 3.361E+02	 4.045E+02	-5.574E-02	-5.226E-03	 3.831E+02	-1.463E+03	-1.544E+03
  17.400	 1.314E+01	 4.500E+01	-7.233E-01	 1.151E+00	-1.102E+01	 3.422E+02	-4.402E+02	-1.235E+00	 6.705E+01	-2.187E+02	-1.106E+01	-1.556E+03	 2.027E+02	 2.399E+02	 3.303E+02	 3.976E+02	-2.927E-02	-3.697E-02	 1.502E+03	-5.627E+02	-1.539E+03
  17.450	 1.307E+01	 4.500E+01	-7.079E-01	 1.205E+00	-1.198E+01	 3.448E+02	-4.255E+02	-1.389E+00	 7.102E+01	-2.193E+02	 1.237E+01	-1.556E+03	 1.450E+02	 2.435E+02	 3.334E+02	 3.912E+02	-1.437E-03	-6.792E-02	 2.589E+03	 3.848E+02	-1.527E+03
  17.500	 1.301E+01	 4.500E+01	-6.993E-01	 1.258E+00	-8.626E+00	 3.478E+02	-4.055E+02	-1.197E+00	 7.572E+01	-2.194E+02	 3.531E+01	-1.554E+03	 7.754E+01	 2.462E+02	 3.355E+02	 3.857E+02	 2.742E-02	-9.770E-02	 3.630E+03	 1.366E+03	-1.500E+03
  17.550	 1.295E+01	 4.500E+01	-6.909E-01	 1.310E+00	-7.045E+00	 3.472E+02	-3.976E+02	-9.025E-01	 8.045E+01	-2.167E+02	 5.784E+01	-1.562E+03	 5.170E+00	 2.468E+02	 3.347E+02	 3.804E+02	 5.695E-02	-1.259E-01	 4.613E+03	 2.365E+03	-1.466E+03
  17.600	 1.290E+01	 4.500E+01	-6.785E-01	 1.365E+00	-8.179E+00	 3.356E+02	-3.883E+02	-7.773E-01	 8.527E+01	-2.116E+02	 7.967E+01	-1.559E+03	-5.911E+01	 2.451E+02	 3.310E+02	 3.754E+02	 8.682E-02	-1.521E-01	 5.523E+03	 3.372E+03	-1.407E+03
  17.650	 1.285E+01	 4.500E+01	-6.627E-01	 1.423E+00	-8.461E+00	 3.129E+02	-3.680E+02	-7.906E-01	 9.116E+01	-2.047E+02	 9.980E+01	-1.541E+03	-1.023E+02	 2.520E+02	 3.390E+02	 3.711E+02	 1.166E-01	-1.761E-01	 6.348E+03	 4.379E+03	-1.329E+03
  17.700	 1.281E+01	 4.500E+01	-6.459E-01	 1.481E+00	-1.145E+01	 2.810E+02	-3.520E+02	-1.274E+00	 9.809E+01	-1.961E+02	 1.187E+02	-1.531E+03	-1.279E+02	 2.558E+02	 3.430E+02	 3.676E+02	 1.459E-01	-1.974E-01	 7.080E+03	 5.373E+03	-1.256E+03
  17.750	 1.277E+01	 4.500E+01	-6.354E-01	 1.536E+00	-1.161E+01	 2.498E+02	-3.536E+02	-1.509E+00	 1.051E+02	-1.861E+02	 1.364E+02	-1.547E+03	-1.459E+02	 2.556E+02	 3.418E+02	 3.644E+02	 1.744E-01	-2.158E-01	 7.709E+03	 6.340E+03	-1.200E+03
  17.800	 1.273E+01	 4.500E+01	-6.345E-01	 1.592E+00	-1.046E+01	 2.238E+02	-3.683E+02	-1.385E+00	 1.108E+02	-1.756E+02	 1.531E+02	-1.572E+03	-1.611E+02	 2.538E+02	 3.385E+02	 3.614E+02	 2.017E-01	-2.312E-01	 8.227E+03	 7.268E+03	-1.147E+03
  17.850	 1.269E+01	 4.500E+01	-6.416E-01	 1.644E+00	-6.360E+00	 2.030E+02	-4.074E+02	-1.518E+00	 1.144E+02	-1.626E+02	 1.687E+02	-1.613E+03	-1.804E+02	 2.480E+02	 3.297E+02	 3.579E+02	 2.275E-01	-2.432E-01	 8.629E+03	 8.141E+03	-1.096E+03
  17.900	 1.265E+01	 4.500E+01	-6.515E-01	 1.683E+00	-7.397E+00	 1.879E+02	-4.462E+02	-1.396E+00	 1.174E+02	-1.487E+02	 1.826E+02	-1.651E+03	-2.052E+02	 2.467E+02	 3.268E+02	 3.544E+02	 2.517E-01	-2.519E-01	 8.910E+03	 8.945E+03	-1.031E+03
  17.950	 1.262E+01	 4.500E+01	-6.633E-01	 1.703E+00	-3.076E+00	 1.770E+02	-4.595E+02	-1.217E+00	 1.227E+02	-1.365E+02	 1.951E+02	-1.672E+03	-2.299E+02	 2.582E+02	 3.412E+02	 3.517E+02	 2.737E-01	-2.572E-01	 9.068E+03	 9.675E+03	-9.502E+02
  18.000	 1.259E+01	 4.500E+01	-6.703E-01	 1.705E+00	 1.185E+00	 1.658E+02	-4.782E+02	-1.404E+00	 1.262E+02	-1.227E+02	 2.057E+02	-1.690E+03	-2.421E+02	 2.546E+02	 3.357E+02	 3.495E+02	 2.934E-01	-2.592E-01	 9.109E+03	 1.032E+04	-8.662E+02
  18.050	 1.256E+01	 4.500E+01	-6.663E-01	 1.696E+00	-1.788E+00	 1.547E+02	-4.991E+02	-1.477E+00	 1.287E+02	-1.089E+02	 2.151E+02	-1.702E+03	-2.451E+02	 2.446E+02	 3.217E+02	 3.467E+02	 3.105E-01	-2.577E-01	 9.033E+03	 1.088E+04	-7.784E+02
  18.100	 1.252E+01	 4.500E+01	-6.555E-01	 1.681E+00	-5.614E+00	 1.434E+02	-4.987E+02	-1.297E+00	 1.298E+02	-9.697E+01	 2.234E+02	-1.679E+03	-2.381E+02	 2.465E+02	 3.233E+02	 3.437E+02	 3.246E-01	-2.530E-01	 8.840E+03	 1.135E+04	-6.787E+02
  18.150	 1.249E+01	 4.500E+01	-6.443E-01	 1.660E+00	-5.658E+00	 1.279E+02	-4.865E+02	-1.516E+00	 1.303E+02	-8.544E+01	 2.305E+02	-1.636E+03	-2.284E+02	 2.523E+02	 3.301E+02	 3.413E+02	 3.355E-01	-2.452E-01	 8.536E+03	 1.172E+04	-5.731E+02
  18.200	 1.247E+01	 4.500E+01	-6.323E-01	 1.633E+00	-4.209E+00	 1.088E+02	-4.738E+02	-1.631E+00	 1.306E+02	-7.400E+01	 2.372E+02	-1.592E+03	-2.265E+02	 2.503E+02	 3.268E+02	 3.392E+02	 3.431E-01	-2.343E-01	 8.128E+03	 1.198E+04	-4.628E+02
  18.250	 1.244E+01	 4.500E+01	-6.189E-01	 1.602E+00	-6.777E+00	 8.839E+01	-4.708E+02	-1.593E+00	 1.306E+02	-6.202E+01	 2.425E+02	-1.554E+03	-2.204E+02	 2.475E+02	 3.224E+02	 3.370E+02	 3.473E-01	-2.206E-01	 7.623E+03	 1.210E+04	-3.628E+02
  18.300	 1.241E+01	 4.500E+01	-6.081E-01	 1.568E+00	-6.963E+00	 6.746E+01	-4.773E+02	-1.687E+00	 1.296E+02	-4.936E+01	 2.463E+02	-1.523E+03	-2.116E+02	 2.398E+02	 3.116E+02	 3.343E+02	 3.479E-01	-2.044E-01	 7.028E+03	 1.210E+04	-2.708E+02
  18.350	 1.237E+01	 4.500E+01	-6.019E-01	 1.534E+00	-7.304E+00	 5.051E+01	-4.920E+02	-1.832E+00	 1.282E+02	-3.646E+01	 2.492E+02	-1.504E+03	-2.070E+02	 2.370E+02	 3.070E+02	 3.313E+02	 3.449E-01	-1.858E-01	 6.355E+03	 1.196E+04	-1.828E+02
  18.400	 1.234E+01	 4.500E+01	-6.019E-01	 1.510E+00	-6.278E+00	 3.860E+01	-5.083E+02	-1.839E+00	 1.268E+02	-2.432E+01	 2.519E+02	-1.493E+03	-2.021E+02	 2.400E+02	 3.100E+02	 3.286E+02	 3.384E-01	-1.654E-01	 5.614E+03	 1.170E+04	-1.015E+02
  18.450	 1.231E+01	 4.500E+01	-6.070E-01	 1.500E+00	-6.223E+00	 3.071E+01	-5.261E+02	-1.757E+00	 1.240E+02	-1.252E+01	 2.547E+02	-1.487E+03	-1.843E+02	 2.432E+02	 3.134E+02	 3.263E+02	 3.282E-01	-1.433E-01	 4.821E+03	 1.132E+04	-3.587E+01
  18.500	 1.228E+01	 4.500E+01	-6.157E-01	 1.493E+00	-5.828E+00	 2.305E+01	-5.455E+02	-1.665E+00	 1.205E+02	-1.304E+00	 2.573E+02	-1.491E+03	-1.594E+02	 2.345E+02	 3.015E+02	 3.238E+02	 3.147E-01	-1.201E-01	 3.991E+03	 1.083E+04	 1.880E+01
  18.550	 1.224E+01	 4.500E+01	-6.263E-01	 1.491E+00	-5.763E+00	 1.429E+01	-5.608E+02	-1.655E+00	 1.181E+02	 1.013E+01	 2.598E+02	-1.503E+03	-1.486E+02	 2.310E+02	 2.960E+02	 3.208E+02	 2.980E-01	-9.602E-02	 3.135E+03	 1.022E+04	 8.615E+01
  18.600	 1.220E+01	 4.500E+01	-6.373E-01	 1.496E+00	-5.203E+00	 2.113E+00	-5.672E+02	-1.580E+00	 1.151E+02	 2.099E+01	 2.618E+02	-1.493E+03	-1.463E+02	 2.322E+02	 2.966E+02	 3.180E+02	 2.786E-01	-7.156E-02	 2.266E+03	 9.514E+03	 1.611E+02
  18.650	 1.217E+01	 4.500E+01	-6.476E-01	 1.494E+00	-4.098E+00	-1.248E+01	-5.765E+02	-1.662E+00	 1.113E+02	 3.215E+01	 2.623E+02	-1.476E+03	-1.354E+02	 2.298E+02	 2.928E+02	 3.153E+02	 2.566E-01	-4.706E-02	 1.400E+03	 8.725E+03	 2.260E+02
  18.700	 1.213E+01	 4.500E+01	-6.565E-01	 1.471E+00	-4.211E+00	-2.731E+01	-6.014E+02	-1.729E+00	 1.082E+02	 4.457E+01	 2.619E+02	-1.486E+03	-1.127E+02	 2.204E+02	 2.800E+02	 3.122E+02	 2.325E-01	-2.291E-02	 5.493E+02	 7.857E+03	 2.825E+02
  18.750	 1.208E+01	 4.500E+01	-6.649E-01	 1.429E+00	-5.606E+00	-4.038E+01	-6.292E+02	-1.726E+00	 1.050E+02	 5.736E+01	 2.616E+02	-1.500E+03	-8.872E+01	 2.141E+02	 2.708E+02	 3.085E+02	 2.066E-01	 5.015E-04	-2.727E+02	 6.931E+03	 3.392E+02
  18.800	 1.203E+01	 4.500E+01	-6.736E-01	 1.387E+00	-3.379E+00	-5.206E+01	-6.477E+02	-1.603E+00	 1.006E+02	 6.964E+01	 2.605E+02	-1.492E+03	-3.865E+01	 2.158E+02	 2.719E+02	 3.049E+02	 1.795E-01	 2.278E-02	-1.053E+03	 5.972E+03	 3.642E+02
  18.850	 1.199E+01	 4.500E+01	-6.788E-01	 1.349E+00	-1.889E+00	-6.491E+01	-6.709E+02	-1.769E+00	 9.224E+01	 8.264E+01	 2.585E+02	-1.458E+03	 1.566E+01	 2.125E+02	 2.667E+02	 3.015E+02	 1.515E-01	 4.356E-02	-1.776E+03	 4.995E+03	 3.800E+02
  18.900	 1.194E+01	 4.500E+01	-6.780E-01	 1.314E+00	-3.241E+00	-7.953E+01	-6.816E+02	-1.658E+00	 8.446E+01	 9.542E+01	 2.565E+02	-1.409E+03	 4.970E+01	 2.137E+02	 2.672E+02	 2.980E+02	 1.231E-01	 6.252E-02	-2.434E+03	 4.008E+03	 4.046E+02
  18.950	 1.190E+01	 4.500E+01	-6.723E-01	 1.274E+00	-3.705E+00	-9.732E+01	-6.780E+02	-1.670E+00	 7.814E+01	 1.080E+02	 2.542E+02	-1.354E+03	 4.654E+01	 2.141E+02	 2.668E+02	 2.949E+02	 9.443E-02	 7.939E-02	-3.015E+03	 3.023E+03	 4.541E+02
  19.000	 1.186E+01	 4.500E+01	-6.620E-01	 1.234E+00	-1.107E+00	-1.178E+02	-6.677E+02	-1.855E+00	 7.452E+01	 1.209E+02	 2.520E+02	-1.306E+03	 1.121E+01	 2.111E+02	 2.621E+02	 2.919E+02	 6.599E-02	 9.393E-02	-3.512E+03	 2.049E+03	 5.275E+02
  19.050	 1.181E+01	 4.500E+01	-6.444E-01	 1.197E+00	-1.164E+00	-1.358E+02	-6.672E+02	-2.049E+00	 6.898E+01	 1.346E+02	 2.471E+02	-1.271E+03	 1.275E+01	 1.980E+02	 2.449E+02	 2.883E+02	 3.817E-02	 1.060E-01	-3.917E+03	 1.094E+03	 5.716E+02
  19.100	 1.175E+01	 4.500E+01	-6.203E-01	 1.173E+00	-5.321E+00	-1.511E+02	-6.672E+02	-1.980E+00	 6.484E+01	 1.481E+02	 2.421E+02	-1.244E+03	 8.921E+00	 1.923E+02	 2.366E+02	 2.841E+02	 1.139E-02	 1.154E-01	-4.230E+03	 1.757E+02	 6.165E+02
  19.150	 1.170E+01	 4.500E+01	-5.963E-01	 1.161E+00	-6.332E+00	-1.639E+02	-6.516E+02	-1.878E+00	 6.117E+01	 1.603E+02	 2.352E+02	-1.198E+03	 2.421E+01	 2.035E+02	 2.493E+02	 2.803E+02	-1.394E-02	 1.221E-01	-4.448E+03	-6.912E+02	 6.278E+02
  19.200	 1.166E+01	 4.500E+01	-5.741E-01	 1.148E+00	-4.758E+00	-1.768E+02	-6.334E+02	-1.900E+00	 5.783E+01	 1.722E+02	 2.267E+02	-1.151E+03	 5.025E+00	 2.104E+02	 2.570E+02	 2.778E+02	-3.748E-02	 1.261E-01	-4.569E+03	-1.487E+03	 6.609E+02
  19.250	 1.163E+01	 4.500E+01	-5.521E-01	 1.134E+00	-5.483E+00	-1.909E+02	-6.305E+02	-2.075E+00	 5.429E+01	 1.855E+02	 2.173E+02	-1.120E+03	-3.860E+01	 2.065E+02	 2.514E+02	 2.753E+02	-5.893E-02	 1.273E-01	-4.592E+03	-2.202E+03	 7.203E+02
  19.300	 1.159E+01	 4.500E+01	-5.321E-01	 1.117E+00	-7.754E+00	-2.048E+02	-6.280E+02	-1.942E+00	 5.198E+01	 1.980E+02	 2.071E+02	-1.096E+03	-8.830E+01	 2.043E+02	 2.480E+02	 2.726E+02	-7.803E-02	 1.258E-01	-4.521E+03	-2.828E+03	 7.793E+02
  19.350	 1.155E+01	 4.500E+01	-5.179E-01	 1.106E+00	-8.072E+00	-2.197E+02	-6.391E+02	-2.157E+00	 4.947E+01	 2.119E+02	 1.957E+02	-1.093E+03	-1.190E+02	 2.010E+02	 2.432E+02	 2.699E+02	-9.450E-02	 1.217E-01	-4.357E+03	-3.361E+03	 8.373E+02
  19.400	 1.152E+01	 4.500E+01	-5.104E-01	 1.113E+00	-7.736E+00	-2.350E+02	-6.596E+02	-2.336E+00	 4.599E+01	 2.251E+02	 1.827E+02	-1.095E+03	-1.145E+02	 2.027E+02	 2.444E+02	 2.673E+02	-1.081E-01	 1.151E-01	-4.106E+03	-3.799E+03	 8.750E+02
  19.450	 1.149E+01	 4.500E+01	-5.095E-01	 1.140E+00	-7.992E+00	-2.526E+02	-6.859E+02	-2.428E+00	 4.564E+01	 2.384E+02	 1.693E+02	-1.119E+03	-1.107E+02	 2.118E+02	 2.548E+02	 2.653E+02	-1.186E-01	 1.061E-01	-3.774E+03	-4.135E+03	 9.273E+02
  19.500	 1.147E+01	 4.500E+01	-5.164E-01	 1.170E+00	-7.151E+00	-2.713E+02	-7.049E+02	-2.459E+00	 4.701E+01	 2.493E+02	 1.538E+02	-1.146E+03	-1.024E+02	 2.191E+02	 2.632E+02	 2.640E+02	-1.258E-01	 9.488E-02	-3.365E+03	-4.363E+03	 9.801E+02
  19.550	 1.145E+01	 4.500E+01	-5.312E-01	 1.201E+00	-5.132E+00	-2.891E+02	-7.241E+02	-2.536E+00	 4.931E+01	 2.595E+02	 1.373E+02	-1.181E+03	-8.734E+01	 2.175E+02	 2.608E+02	 2.628E+02	-1.297E-01	 8.166E-02	-2.885E+03	-4.474E+03	 1.038E+03
  19.600	 1.143E+01	 4.500E+01	-5.519E-01	 1.229E+00	-1.496E+00	-3.013E+02	-7.437E+02	-2.639E+00	 5.221E+01	 2.683E+02	 1.198E+02	-1.222E+03	-6.475E+01	 2.110E+02	 2.526E+02	 2.617E+02	-1.303E-01	 6.671E-02	-2.345E+03	-4.461E+03	 1.099E+03
  19.650	 1.141E+01	 4.500E+01	-5.744E-01	 1.254E+00	-3.877E-01	-3.048E+02	-7.758E+02	-2.695E+00	 5.372E+01	 2.772E+02	 1.021E+02	-1.271E+03	-4.044E+01	 2.032E+02	 2.428E+02	 2.598E+02	-1.273E-01	 5.032E-02	-1.754E+03	-4.320E+03	 1.168E+03
  19.700	 1.138E+01	 4.500E+01	-5.966E-01	 1.273E+00	-1.454E+00	-3.005E+02	-8.067E+02	-2.567E+00	 5.504E+01	 2.844E+02	 8.393E+01	-1.318E+03	-2.061E+01	 2.081E+02	 2.480E+02	 2.579E+02	-1.210E-01	 3.281E-02	-1.128E+03	-4.054E+03	 1.235E+03
  19.750	 1.136E+01	 4.500E+01	-6.181E-01	 1.283E+00	-5.791E-01	-2.952E+02	-8.354E+02	-2.628E+00	 5.730E+01	 2.904E+02	 6.494E+01	-1.364E+03	-1.469E+01	 2.097E+02	 2.494E+02	 2.564E+02	-1.113E-01	 1.451E-02	-4.751E+02	-3.668E+03	 1.304E+03
  19.800	 1.134E+01	 4.500E+01	-6.362E-01	 1.289E+00	-8.834E-01	-2.915E+02	-8.482E+02	-2.315E+00	 5.989E+01	 2.934E+02	 4.519E+01	-1.383E+03	-5.083E+00	 2.147E+02	 2.551E+02	 2.554E+02	-9.851E-02	-4.260E-03	 1.900E+02	-3.175E+03	 1.344E+03
  19.850	 1.133E+01	 4.500E+01	-6.495E-01	 1.289E+00	 5.457E-01	-2.929E+02	-8.574E+02	-2.614E+00	 6.140E+01	 2.952E+02	 2.453E+01	-1.377E+03	 1.235E+01	 2.114E+02	 2.508E+02	 2.544E+02	-8.291E-02	-2.316E-02	 8.574E+02	-2.586E+03	 1.358E+03
  19.900	 1.131E+01	 4.500E+01	-6.558E-01	 1.280E+00	 2.585E+00	-2.972E+02	-8.582E+02	-2.786E+00	 6.285E+01	 2.950E+02	 3.776E+00	-1.354E+03	 3.532E+01	 2.039E+02	 2.414E+02	 2.530E+02	-6.490E-02	-4.182E-02	 1.516E+03	-1.916E+03	 1.352E+03
  19.950	 1.128E+01	 4.500E+01	-6.537E-01	 1.252E+00	 1.743E-01	-3.006E+02	-8.537E+02	-2.518E+00	 6.661E+01	 2.936E+02	-1.624E+01	-1.339E+03	 3.274E+01	 2.017E+02	 2.383E+02	 2.511E+02	-4.491E-02	-5.990E-02	 2.151E+03	-1.172E+03	 1.349E+03
  20.000	 1.125E+01	 4.500E+01	-6.464E-01	 1.216E+00	 2.673E+00	-3.055E+02	-8.342E+02	-2.798E+00	 7.055E+01	 2.909E+02	-3.574E+01	-1.309E+03	 3.342E+01	 2.002E+02	 2.360E+02	 2.496E+02	-2.335E-02	-7.706E-02	 2.754E+03	-3.760E+02	 1.326E+03
