
This summary file was generated by HydroDyn v2.01.01c-gjh on 02-Jul-2014 at 13:26:48.




Volume Calculations(m^3)
------------------------
  Structure Volume     :    8.48232E+02
  Submerged Volume     :    5.65487E+02
  Marine Growth Volume :    0.00000E+00
  Ballasted Volume     :    0.00000E+00
              NOTE: Structure, Submerged and Marine Growth volumes are based on members not modelled with WAMIT
                    Ballasted volume is computed from all members which are marked as filled in the HydroDyn input file, regardless of PropWAMIT flag



Buoyancy loads summed about ( 0.0, 0.0, 0.0 )
---------------------------------------------
                                BuoyFxi               BuoyFyi               BuoyFzi               BuoyMxi               BuoyMyi               BuoyMzi 
                                  (N)                   (N)                   (N)                  (N-m)                 (N-m)                 (N-m)  
 External:                  0.000000E+00          0.000000E+00          0.000000E+00          0.000000E+00          0.000000E+00          0.000000E+00
 Internal:                  0.000000E+00          0.000000E+00          0.000000E+00          0.000000E+00          0.000000E+00          0.000000E+00
 Total   :                  0.000000E+00          0.000000E+00          0.000000E+00          0.000000E+00          0.000000E+00          0.000000E+00
              NOTE: External buoyancy is based on members not modelled with WAMIT
                    Internal buoyancy is computed from all members which are marked as filled in the HydroDyn input file, regardless of PropWAMIT flag
                    Total buoyancy does not include WAMIT-modelled buoyancy contribution



Weight loads about ( 0.0, 0.0, 0.0 )
------------------------------------
                                 MGFxi                 MGFyi                 MGFzi                 MGMxi                 MGMyi                 MGMzi  
                                  (N)                   (N)                   (N)                  (N-m)                 (N-m)                 (N-m)  
 Marine Growth:             0.000000E+00          0.000000E+00          0.000000E+00          0.000000E+00          0.000000E+00          0.000000E+00



Nodes


   i    JointIndx   JointOvrlp  InpMbrIndx     Nxi         Nyi         Nzi      InpMbrDist       R         dRdZ         t          tMG        MGDens    PropWAMIT   FilledFlag   FillDens   FillFSLoc       Cd          Ca          Cp         AxCa        AxCp        JAxCd       JAxCa       JAxCp    NConn  Connection List
  (-)      (-)         (-)         (-)         (m)         (m)         (m)          (-)         (m)         (-)        (m)         (m)       (kg/m^3)      (-)         (-)       (kg/m^3)       (-)         (-)         (-)         (-)         (-)         (-)         (-)         (-)         (-)      (-)                  
     1           1           0           1      0.0000      0.0000    -20.0001      0.0000   3.000E+00   0.000E+00   6.000E-02   0.000E+00   0.000E+00           F           F   0.000E+00   0.000E+00   1.000E+00   1.000E+00   1.000E+00   1.000E+00   1.000E+00   0.000E+00   0.000E+00   1.000E+00      1     1
     2           2           0           1      0.0000      0.0000     10.0000      1.0000   3.000E+00   0.000E+00   6.000E-02   0.000E+00   0.000E+00           F           F   0.000E+00   0.000E+00   1.000E+00   1.000E+00   1.000E+00   1.000E+00   1.000E+00   0.000E+00   0.000E+00   1.000E+00      1    61
     3           3           0           1      0.0000      0.0000    -20.0000      0.0000   3.000E+00   0.000E+00   6.000E-02   0.000E+00   0.000E+00           F           F   0.000E+00   0.000E+00   1.000E+00   1.000E+00   1.000E+00   1.000E+00   1.000E+00   0.000E+00   0.000E+00   0.000E+00      1     2
     4           4           0           1      0.0000      0.0000      0.0000      0.6667   3.000E+00   0.000E+00   6.000E-02   0.000E+00   0.000E+00           F           F   0.000E+00   0.000E+00   1.000E+00   1.000E+00   1.000E+00   1.000E+00   1.000E+00   0.000E+00   0.000E+00   0.000E+00      1    42
     5          -1           0           1      0.0000      0.0000    -19.5000      0.0167   3.000E+00   0.000E+00   6.000E-02   0.000E+00   0.000E+00           F           F   0.000E+00   0.000E+00   1.000E+00   1.000E+00   1.000E+00   1.000E+00   1.000E+00   0.000E+00   0.000E+00   0.000E+00      2     2     4
     6          -1           0           1      0.0000      0.0000    -19.0000      0.0333   3.000E+00   0.000E+00   6.000E-02   0.000E+00   0.000E+00           F           F   0.000E+00   0.000E+00   1.000E+00   1.000E+00   1.000E+00   1.000E+00   1.000E+00   0.000E+00   0.000E+00   0.000E+00      2     4     5
     7          -1           0           1      0.0000      0.0000    -18.5000      0.0500   3.000E+00   0.000E+00   6.000E-02   0.000E+00   0.000E+00           F           F   0.000E+00   0.000E+00   1.000E+00   1.000E+00   1.000E+00   1.000E+00   1.000E+00   0.000E+00   0.000E+00   0.000E+00      2     5     6
     8          -1           0           1      0.0000      0.0000    -18.0000      0.0667   3.000E+00   0.000E+00   6.000E-02   0.000E+00   0.000E+00           F           F   0.000E+00   0.000E+00   1.000E+00   1.000E+00   1.000E+00   1.000E+00   1.000E+00   0.000E+00   0.000E+00   0.000E+00      2     6     7
     9          -1           0           1      0.0000      0.0000    -17.5000      0.0833   3.000E+00   0.000E+00   6.000E-02   0.000E+00   0.000E+00           F           F   0.000E+00   0.000E+00   1.000E+00   1.000E+00   1.000E+00   1.000E+00   1.000E+00   0.000E+00   0.000E+00   0.000E+00      2     7     8
    10          -1           0           1      0.0000      0.0000    -17.0000      0.1000   3.000E+00   0.000E+00   6.000E-02   0.000E+00   0.000E+00           F           F   0.000E+00   0.000E+00   1.000E+00   1.000E+00   1.000E+00   1.000E+00   1.000E+00   0.000E+00   0.000E+00   0.000E+00      2     8     9
    11          -1           0           1      0.0000      0.0000    -16.5000      0.1167   3.000E+00   0.000E+00   6.000E-02   0.000E+00   0.000E+00           F           F   0.000E+00   0.000E+00   1.000E+00   1.000E+00   1.000E+00   1.000E+00   1.000E+00   0.000E+00   0.000E+00   0.000E+00      2     9    10
    12          -1           0           1      0.0000      0.0000    -16.0000      0.1333   3.000E+00   0.000E+00   6.000E-02   0.000E+00   0.000E+00           F           F   0.000E+00   0.000E+00   1.000E+00   1.000E+00   1.000E+00   1.000E+00   1.000E+00   0.000E+00   0.000E+00   0.000E+00      2    10    11
    13          -1           0           1      0.0000      0.0000    -15.5000      0.1500   3.000E+00   0.000E+00   6.000E-02   0.000E+00   0.000E+00           F           F   0.000E+00   0.000E+00   1.000E+00   1.000E+00   1.000E+00   1.000E+00   1.000E+00   0.000E+00   0.000E+00   0.000E+00      2    11    12
    14          -1           0           1      0.0000      0.0000    -15.0000      0.1667   3.000E+00   0.000E+00   6.000E-02   0.000E+00   0.000E+00           F           F   0.000E+00   0.000E+00   1.000E+00   1.000E+00   1.000E+00   1.000E+00   1.000E+00   0.000E+00   0.000E+00   0.000E+00      2    12    13
    15          -1           0           1      0.0000      0.0000    -14.5000      0.1833   3.000E+00   0.000E+00   6.000E-02   0.000E+00   0.000E+00           F           F   0.000E+00   0.000E+00   1.000E+00   1.000E+00   1.000E+00   1.000E+00   1.000E+00   0.000E+00   0.000E+00   0.000E+00      2    13    14
    16          -1           0           1      0.0000      0.0000    -14.0000      0.2000   3.000E+00   0.000E+00   6.000E-02   0.000E+00   0.000E+00           F           F   0.000E+00   0.000E+00   1.000E+00   1.000E+00   1.000E+00   1.000E+00   1.000E+00   0.000E+00   0.000E+00   0.000E+00      2    14    15
    17          -1           0           1      0.0000      0.0000    -13.5000      0.2167   3.000E+00   0.000E+00   6.000E-02   0.000E+00   0.000E+00           F           F   0.000E+00   0.000E+00   1.000E+00   1.000E+00   1.000E+00   1.000E+00   1.000E+00   0.000E+00   0.000E+00   0.000E+00      2    15    16
    18          -1           0           1      0.0000      0.0000    -13.0000      0.2333   3.000E+00   0.000E+00   6.000E-02   0.000E+00   0.000E+00           F           F   0.000E+00   0.000E+00   1.000E+00   1.000E+00   1.000E+00   1.000E+00   1.000E+00   0.000E+00   0.000E+00   0.000E+00      2    16    17
    19          -1           0           1      0.0000      0.0000    -12.5000      0.2500   3.000E+00   0.000E+00   6.000E-02   0.000E+00   0.000E+00           F           F   0.000E+00   0.000E+00   1.000E+00   1.000E+00   1.000E+00   1.000E+00   1.000E+00   0.000E+00   0.000E+00   0.000E+00      2    17    18
    20          -1           0           1      0.0000      0.0000    -12.0000      0.2667   3.000E+00   0.000E+00   6.000E-02   0.000E+00   0.000E+00           F           F   0.000E+00   0.000E+00   1.000E+00   1.000E+00   1.000E+00   1.000E+00   1.000E+00   0.000E+00   0.000E+00   0.000E+00      2    18    19
    21          -1           0           1      0.0000      0.0000    -11.5000      0.2833   3.000E+00   0.000E+00   6.000E-02   0.000E+00   0.000E+00           F           F   0.000E+00   0.000E+00   1.000E+00   1.000E+00   1.000E+00   1.000E+00   1.000E+00   0.000E+00   0.000E+00   0.000E+00      2    19    20
    22          -1           0           1      0.0000      0.0000    -11.0000      0.3000   3.000E+00   0.000E+00   6.000E-02   0.000E+00   0.000E+00           F           F   0.000E+00   0.000E+00   1.000E+00   1.000E+00   1.000E+00   1.000E+00   1.000E+00   0.000E+00   0.000E+00   0.000E+00      2    20    21
    23          -1           0           1      0.0000      0.0000    -10.5000      0.3167   3.000E+00   0.000E+00   6.000E-02   0.000E+00   0.000E+00           F           F   0.000E+00   0.000E+00   1.000E+00   1.000E+00   1.000E+00   1.000E+00   1.000E+00   0.000E+00   0.000E+00   0.000E+00      2    21    22
    24          -1           0           1      0.0000      0.0000    -10.0000      0.3333   3.000E+00   0.000E+00   6.000E-02   0.000E+00   0.000E+00           F           F   0.000E+00   0.000E+00   1.000E+00   1.000E+00   1.000E+00   1.000E+00   1.000E+00   0.000E+00   0.000E+00   0.000E+00      2    22    23
    25          -1           0           1      0.0000      0.0000     -9.5000      0.3500   3.000E+00   0.000E+00   6.000E-02   0.000E+00   0.000E+00           F           F   0.000E+00   0.000E+00   1.000E+00   1.000E+00   1.000E+00   1.000E+00   1.000E+00   0.000E+00   0.000E+00   0.000E+00      2    23    24
    26          -1           0           1      0.0000      0.0000     -9.0000      0.3667   3.000E+00   0.000E+00   6.000E-02   0.000E+00   0.000E+00           F           F   0.000E+00   0.000E+00   1.000E+00   1.000E+00   1.000E+00   1.000E+00   1.000E+00   0.000E+00   0.000E+00   0.000E+00      2    24    25
    27          -1           0           1      0.0000      0.0000     -8.5000      0.3833   3.000E+00   0.000E+00   6.000E-02   0.000E+00   0.000E+00           F           F   0.000E+00   0.000E+00   1.000E+00   1.000E+00   1.000E+00   1.000E+00   1.000E+00   0.000E+00   0.000E+00   0.000E+00      2    25    26
    28          -1           0           1      0.0000      0.0000     -8.0000      0.4000   3.000E+00   0.000E+00   6.000E-02   0.000E+00   0.000E+00           F           F   0.000E+00   0.000E+00   1.000E+00   1.000E+00   1.000E+00   1.000E+00   1.000E+00   0.000E+00   0.000E+00   0.000E+00      2    26    27
    29          -1           0           1      0.0000      0.0000     -7.5000      0.4167   3.000E+00   0.000E+00   6.000E-02   0.000E+00   0.000E+00           F           F   0.000E+00   0.000E+00   1.000E+00   1.000E+00   1.000E+00   1.000E+00   1.000E+00   0.000E+00   0.000E+00   0.000E+00      2    27    28
    30          -1           0           1      0.0000      0.0000     -7.0000      0.4333   3.000E+00   0.000E+00   6.000E-02   0.000E+00   0.000E+00           F           F   0.000E+00   0.000E+00   1.000E+00   1.000E+00   1.000E+00   1.000E+00   1.000E+00   0.000E+00   0.000E+00   0.000E+00      2    28    29
    31          -1           0           1      0.0000      0.0000     -6.5000      0.4500   3.000E+00   0.000E+00   6.000E-02   0.000E+00   0.000E+00           F           F   0.000E+00   0.000E+00   1.000E+00   1.000E+00   1.000E+00   1.000E+00   1.000E+00   0.000E+00   0.000E+00   0.000E+00      2    29    30
    32          -1           0           1      0.0000      0.0000     -6.0000      0.4667   3.000E+00   0.000E+00   6.000E-02   0.000E+00   0.000E+00           F           F   0.000E+00   0.000E+00   1.000E+00   1.000E+00   1.000E+00   1.000E+00   1.000E+00   0.000E+00   0.000E+00   0.000E+00      2    30    31
    33          -1           0           1      0.0000      0.0000     -5.5000      0.4833   3.000E+00   0.000E+00   6.000E-02   0.000E+00   0.000E+00           F           F   0.000E+00   0.000E+00   1.000E+00   1.000E+00   1.000E+00   1.000E+00   1.000E+00   0.000E+00   0.000E+00   0.000E+00      2    31    32
    34          -1           0           1      0.0000      0.0000     -5.0000      0.5000   3.000E+00   0.000E+00   6.000E-02   0.000E+00   0.000E+00           F           F   0.000E+00   0.000E+00   1.000E+00   1.000E+00   1.000E+00   1.000E+00   1.000E+00   0.000E+00   0.000E+00   0.000E+00      2    32    33
    35          -1           0           1      0.0000      0.0000     -4.5000      0.5167   3.000E+00   0.000E+00   6.000E-02   0.000E+00   0.000E+00           F           F   0.000E+00   0.000E+00   1.000E+00   1.000E+00   1.000E+00   1.000E+00   1.000E+00   0.000E+00   0.000E+00   0.000E+00      2    33    34
    36          -1           0           1      0.0000      0.0000     -4.0000      0.5333   3.000E+00   0.000E+00   6.000E-02   0.000E+00   0.000E+00           F           F   0.000E+00   0.000E+00   1.000E+00   1.000E+00   1.000E+00   1.000E+00   1.000E+00   0.000E+00   0.000E+00   0.000E+00      2    34    35
    37          -1           0           1      0.0000      0.0000     -3.5000      0.5500   3.000E+00   0.000E+00   6.000E-02   0.000E+00   0.000E+00           F           F   0.000E+00   0.000E+00   1.000E+00   1.000E+00   1.000E+00   1.000E+00   1.000E+00   0.000E+00   0.000E+00   0.000E+00      2    35    36
    38          -1           0           1      0.0000      0.0000     -3.0000      0.5667   3.000E+00   0.000E+00   6.000E-02   0.000E+00   0.000E+00           F           F   0.000E+00   0.000E+00   1.000E+00   1.000E+00   1.000E+00   1.000E+00   1.000E+00   0.000E+00   0.000E+00   0.000E+00      2    36    37
    39          -1           0           1      0.0000      0.0000     -2.5000      0.5833   3.000E+00   0.000E+00   6.000E-02   0.000E+00   0.000E+00           F           F   0.000E+00   0.000E+00   1.000E+00   1.000E+00   1.000E+00   1.000E+00   1.000E+00   0.000E+00   0.000E+00   0.000E+00      2    37    38
    40          -1           0           1      0.0000      0.0000     -2.0000      0.6000   3.000E+00   0.000E+00   6.000E-02   0.000E+00   0.000E+00           F           F   0.000E+00   0.000E+00   1.000E+00   1.000E+00   1.000E+00   1.000E+00   1.000E+00   0.000E+00   0.000E+00   0.000E+00      2    38    39
    41          -1           0           1      0.0000      0.0000     -1.5000      0.6167   3.000E+00   0.000E+00   6.000E-02   0.000E+00   0.000E+00           F           F   0.000E+00   0.000E+00   1.000E+00   1.000E+00   1.000E+00   1.000E+00   1.000E+00   0.000E+00   0.000E+00   0.000E+00      2    39    40
    42          -1           0           1      0.0000      0.0000     -1.0000      0.6333   3.000E+00   0.000E+00   6.000E-02   0.000E+00   0.000E+00           F           F   0.000E+00   0.000E+00   1.000E+00   1.000E+00   1.000E+00   1.000E+00   1.000E+00   0.000E+00   0.000E+00   0.000E+00      2    40    41
    43          -1           0           1      0.0000      0.0000     -0.5000      0.6500   3.000E+00   0.000E+00   6.000E-02   0.000E+00   0.000E+00           F           F   0.000E+00   0.000E+00   1.000E+00   1.000E+00   1.000E+00   1.000E+00   1.000E+00   0.000E+00   0.000E+00   0.000E+00      2    41    42
    44          -1           0           1      0.0000      0.0000      0.5000      0.6833   3.000E+00   0.000E+00   6.000E-02   0.000E+00   0.000E+00           F           F   0.000E+00   0.000E+00   1.000E+00   1.000E+00   1.000E+00   1.000E+00   1.000E+00   0.000E+00   0.000E+00   0.000E+00      2     3    43
    45          -1           0           1      0.0000      0.0000      1.0000      0.7000   3.000E+00   0.000E+00   6.000E-02   0.000E+00   0.000E+00           F           F   0.000E+00   0.000E+00   1.000E+00   1.000E+00   1.000E+00   1.000E+00   1.000E+00   0.000E+00   0.000E+00   0.000E+00      2    43    44
    46          -1           0           1      0.0000      0.0000      1.5000      0.7167   3.000E+00   0.000E+00   6.000E-02   0.000E+00   0.000E+00           F           F   0.000E+00   0.000E+00   1.000E+00   1.000E+00   1.000E+00   1.000E+00   1.000E+00   0.000E+00   0.000E+00   0.000E+00      2    44    45
    47          -1           0           1      0.0000      0.0000      2.0000      0.7333   3.000E+00   0.000E+00   6.000E-02   0.000E+00   0.000E+00           F           F   0.000E+00   0.000E+00   1.000E+00   1.000E+00   1.000E+00   1.000E+00   1.000E+00   0.000E+00   0.000E+00   0.000E+00      2    45    46
    48          -1           0           1      0.0000      0.0000      2.5000      0.7500   3.000E+00   0.000E+00   6.000E-02   0.000E+00   0.000E+00           F           F   0.000E+00   0.000E+00   1.000E+00   1.000E+00   1.000E+00   1.000E+00   1.000E+00   0.000E+00   0.000E+00   0.000E+00      2    46    47
    49          -1           0           1      0.0000      0.0000      3.0000      0.7667   3.000E+00   0.000E+00   6.000E-02   0.000E+00   0.000E+00           F           F   0.000E+00   0.000E+00   1.000E+00   1.000E+00   1.000E+00   1.000E+00   1.000E+00   0.000E+00   0.000E+00   0.000E+00      2    47    48
    50          -1           0           1      0.0000      0.0000      3.5000      0.7833   3.000E+00   0.000E+00   6.000E-02   0.000E+00   0.000E+00           F           F   0.000E+00   0.000E+00   1.000E+00   1.000E+00   1.000E+00   1.000E+00   1.000E+00   0.000E+00   0.000E+00   0.000E+00      2    48    49
    51          -1           0           1      0.0000      0.0000      4.0000      0.8000   3.000E+00   0.000E+00   6.000E-02   0.000E+00   0.000E+00           F           F   0.000E+00   0.000E+00   1.000E+00   1.000E+00   1.000E+00   1.000E+00   1.000E+00   0.000E+00   0.000E+00   0.000E+00      2    49    50
    52          -1           0           1      0.0000      0.0000      4.5000      0.8167   3.000E+00   0.000E+00   6.000E-02   0.000E+00   0.000E+00           F           F   0.000E+00   0.000E+00   1.000E+00   1.000E+00   1.000E+00   1.000E+00   1.000E+00   0.000E+00   0.000E+00   0.000E+00      2    50    51
    53          -1           0           1      0.0000      0.0000      5.0000      0.8333   3.000E+00   0.000E+00   6.000E-02   0.000E+00   0.000E+00           F           F   0.000E+00   0.000E+00   1.000E+00   1.000E+00   1.000E+00   1.000E+00   1.000E+00   0.000E+00   0.000E+00   0.000E+00      2    51    52
    54          -1           0           1      0.0000      0.0000      5.5000      0.8500   3.000E+00   0.000E+00   6.000E-02   0.000E+00   0.000E+00           F           F   0.000E+00   0.000E+00   1.000E+00   1.000E+00   1.000E+00   1.000E+00   1.000E+00   0.000E+00   0.000E+00   0.000E+00      2    52    53
    55          -1           0           1      0.0000      0.0000      6.0000      0.8667   3.000E+00   0.000E+00   6.000E-02   0.000E+00   0.000E+00           F           F   0.000E+00   0.000E+00   1.000E+00   1.000E+00   1.000E+00   1.000E+00   1.000E+00   0.000E+00   0.000E+00   0.000E+00      2    53    54
    56          -1           0           1      0.0000      0.0000      6.5000      0.8833   3.000E+00   0.000E+00   6.000E-02   0.000E+00   0.000E+00           F           F   0.000E+00   0.000E+00   1.000E+00   1.000E+00   1.000E+00   1.000E+00   1.000E+00   0.000E+00   0.000E+00   0.000E+00      2    54    55
    57          -1           0           1      0.0000      0.0000      7.0000      0.9000   3.000E+00   0.000E+00   6.000E-02   0.000E+00   0.000E+00           F           F   0.000E+00   0.000E+00   1.000E+00   1.000E+00   1.000E+00   1.000E+00   1.000E+00   0.000E+00   0.000E+00   0.000E+00      2    55    56
    58          -1           0           1      0.0000      0.0000      7.5000      0.9167   3.000E+00   0.000E+00   6.000E-02   0.000E+00   0.000E+00           F           F   0.000E+00   0.000E+00   1.000E+00   1.000E+00   1.000E+00   1.000E+00   1.000E+00   0.000E+00   0.000E+00   0.000E+00      2    56    57
    59          -1           0           1      0.0000      0.0000      8.0000      0.9333   3.000E+00   0.000E+00   6.000E-02   0.000E+00   0.000E+00           F           F   0.000E+00   0.000E+00   1.000E+00   1.000E+00   1.000E+00   1.000E+00   1.000E+00   0.000E+00   0.000E+00   0.000E+00      2    57    58
    60          -1           0           1      0.0000      0.0000      8.5000      0.9500   3.000E+00   0.000E+00   6.000E-02   0.000E+00   0.000E+00           F           F   0.000E+00   0.000E+00   1.000E+00   1.000E+00   1.000E+00   1.000E+00   1.000E+00   0.000E+00   0.000E+00   0.000E+00      2    58    59
    61          -1           0           1      0.0000      0.0000      9.0000      0.9667   3.000E+00   0.000E+00   6.000E-02   0.000E+00   0.000E+00           F           F   0.000E+00   0.000E+00   1.000E+00   1.000E+00   1.000E+00   1.000E+00   1.000E+00   0.000E+00   0.000E+00   0.000E+00      2    59    60
    62          -1           0           1      0.0000      0.0000      9.5000      0.9833   3.000E+00   0.000E+00   6.000E-02   0.000E+00   0.000E+00           F           F   0.000E+00   0.000E+00   1.000E+00   1.000E+00   1.000E+00   1.000E+00   1.000E+00   0.000E+00   0.000E+00   0.000E+00      2    60    61
    63           3           0           1      0.0000      0.0000    -20.0000      0.0000   3.000E+00   0.000E+00   6.000E-02   0.000E+00   0.000E+00           F           F   0.000E+00   0.000E+00   1.000E+00   1.000E+00   1.000E+00   1.000E+00   1.000E+00   0.000E+00   0.000E+00   0.000E+00      1     1
    64           4           0           1      0.0000      0.0000      0.0000      0.6667   3.000E+00   0.000E+00   6.000E-02   0.000E+00   0.000E+00           F           F   0.000E+00   0.000E+00   1.000E+00   1.000E+00   1.000E+00   1.000E+00   1.000E+00   0.000E+00   0.000E+00   0.000E+00      1     3



Elements


   i    node1  node2      Length       Volume       MGVolume          R1          tMG1           t1             R2          tMG2           t2          MGDens1       MGDens2      PropWAMIT     FilledFlag   FillDensity    FillFSLoc     FillMass         Cd1            Ca1          Cp1          AxCa1         AxCp1        JAxCd1        JAxCa1        JAxCp1          Cd2           Ca2           Cp2          AxCa2         AxCp2        JAxCd2        JAxCa2        JAxCp2   
  (-)    (-)    (-)        (m)         (m^3)         (m^3)           (m)           (m)           (m)           (m)           (m)           (m)        (kg/m^3)      (kg/m^3)         (-)           (-)        (kg/m^3)         (-)          (kg)           (-)            (-)          (-)           (-)           (-)           (-)           (-)           (-)           (-)            (-)          (-)           (-)           (-)           (-)           (-)           (-)    
     1      1     63   9.91821E-05   2.80431E-03   0.00000E+00   3.00000E+00   0.00000E+00   6.00000E-02   3.00000E+00   0.00000E+00   6.00000E-02   0.00000E+00   0.00000E+00             F             F   0.00000E+00   0.00000E+00   0.00000E+00   1.00000E+00   1.00000E+00   1.00000E+00   1.00000E+00   1.00000E+00   0.00000E+00   0.00000E+00   1.00000E+00   1.00000E+00   1.00000E+00   1.00000E+00   1.00000E+00   1.00000E+00   0.00000E+00   0.00000E+00   0.00000E+00
     2      3      5   5.00000E-01   1.41372E+01   0.00000E+00   3.00000E+00   0.00000E+00   6.00000E-02   3.00000E+00   0.00000E+00   6.00000E-02   0.00000E+00   0.00000E+00             F             F   0.00000E+00   0.00000E+00   0.00000E+00   1.00000E+00   1.00000E+00   1.00000E+00   1.00000E+00   1.00000E+00   0.00000E+00   0.00000E+00   0.00000E+00   1.00000E+00   1.00000E+00   1.00000E+00   1.00000E+00   1.00000E+00   0.00000E+00   0.00000E+00   0.00000E+00
     3     64     44   5.00000E-01   1.41372E+01   0.00000E+00   3.00000E+00   0.00000E+00   6.00000E-02   3.00000E+00   0.00000E+00   6.00000E-02   0.00000E+00   0.00000E+00             F             F   0.00000E+00   0.00000E+00   0.00000E+00   1.00000E+00   1.00000E+00   1.00000E+00   1.00000E+00   1.00000E+00   0.00000E+00   0.00000E+00   0.00000E+00   1.00000E+00   1.00000E+00   1.00000E+00   1.00000E+00   1.00000E+00   0.00000E+00   0.00000E+00   0.00000E+00
     4      5      6   5.00000E-01   1.41372E+01   0.00000E+00   3.00000E+00   0.00000E+00   6.00000E-02   3.00000E+00   0.00000E+00   6.00000E-02   0.00000E+00   0.00000E+00             F             F   0.00000E+00   0.00000E+00   0.00000E+00   1.00000E+00   1.00000E+00   1.00000E+00   1.00000E+00   1.00000E+00   0.00000E+00   0.00000E+00   0.00000E+00   1.00000E+00   1.00000E+00   1.00000E+00   1.00000E+00   1.00000E+00   0.00000E+00   0.00000E+00   0.00000E+00
     5      6      7   5.00000E-01   1.41372E+01   0.00000E+00   3.00000E+00   0.00000E+00   6.00000E-02   3.00000E+00   0.00000E+00   6.00000E-02   0.00000E+00   0.00000E+00             F             F   0.00000E+00   0.00000E+00   0.00000E+00   1.00000E+00   1.00000E+00   1.00000E+00   1.00000E+00   1.00000E+00   0.00000E+00   0.00000E+00   0.00000E+00   1.00000E+00   1.00000E+00   1.00000E+00   1.00000E+00   1.00000E+00   0.00000E+00   0.00000E+00   0.00000E+00
     6      7      8   5.00000E-01   1.41372E+01   0.00000E+00   3.00000E+00   0.00000E+00   6.00000E-02   3.00000E+00   0.00000E+00   6.00000E-02   0.00000E+00   0.00000E+00             F             F   0.00000E+00   0.00000E+00   0.00000E+00   1.00000E+00   1.00000E+00   1.00000E+00   1.00000E+00   1.00000E+00   0.00000E+00   0.00000E+00   0.00000E+00   1.00000E+00   1.00000E+00   1.00000E+00   1.00000E+00   1.00000E+00   0.00000E+00   0.00000E+00   0.00000E+00
     7      8      9   5.00000E-01   1.41372E+01   0.00000E+00   3.00000E+00   0.00000E+00   6.00000E-02   3.00000E+00   0.00000E+00   6.00000E-02   0.00000E+00   0.00000E+00             F             F   0.00000E+00   0.00000E+00   0.00000E+00   1.00000E+00   1.00000E+00   1.00000E+00   1.00000E+00   1.00000E+00   0.00000E+00   0.00000E+00   0.00000E+00   1.00000E+00   1.00000E+00   1.00000E+00   1.00000E+00   1.00000E+00   0.00000E+00   0.00000E+00   0.00000E+00
     8      9     10   5.00000E-01   1.41372E+01   0.00000E+00   3.00000E+00   0.00000E+00   6.00000E-02   3.00000E+00   0.00000E+00   6.00000E-02   0.00000E+00   0.00000E+00             F             F   0.00000E+00   0.00000E+00   0.00000E+00   1.00000E+00   1.00000E+00   1.00000E+00   1.00000E+00   1.00000E+00   0.00000E+00   0.00000E+00   0.00000E+00   1.00000E+00   1.00000E+00   1.00000E+00   1.00000E+00   1.00000E+00   0.00000E+00   0.00000E+00   0.00000E+00
     9     10     11   5.00000E-01   1.41372E+01   0.00000E+00   3.00000E+00   0.00000E+00   6.00000E-02   3.00000E+00   0.00000E+00   6.00000E-02   0.00000E+00   0.00000E+00             F             F   0.00000E+00   0.00000E+00   0.00000E+00   1.00000E+00   1.00000E+00   1.00000E+00   1.00000E+00   1.00000E+00   0.00000E+00   0.00000E+00   0.00000E+00   1.00000E+00   1.00000E+00   1.00000E+00   1.00000E+00   1.00000E+00   0.00000E+00   0.00000E+00   0.00000E+00
    10     11     12   5.00000E-01   1.41372E+01   0.00000E+00   3.00000E+00   0.00000E+00   6.00000E-02   3.00000E+00   0.00000E+00   6.00000E-02   0.00000E+00   0.00000E+00             F             F   0.00000E+00   0.00000E+00   0.00000E+00   1.00000E+00   1.00000E+00   1.00000E+00   1.00000E+00   1.00000E+00   0.00000E+00   0.00000E+00   0.00000E+00   1.00000E+00   1.00000E+00   1.00000E+00   1.00000E+00   1.00000E+00   0.00000E+00   0.00000E+00   0.00000E+00
    11     12     13   5.00000E-01   1.41372E+01   0.00000E+00   3.00000E+00   0.00000E+00   6.00000E-02   3.00000E+00   0.00000E+00   6.00000E-02   0.00000E+00   0.00000E+00             F             F   0.00000E+00   0.00000E+00   0.00000E+00   1.00000E+00   1.00000E+00   1.00000E+00   1.00000E+00   1.00000E+00   0.00000E+00   0.00000E+00   0.00000E+00   1.00000E+00   1.00000E+00   1.00000E+00   1.00000E+00   1.00000E+00   0.00000E+00   0.00000E+00   0.00000E+00
    12     13     14   5.00000E-01   1.41372E+01   0.00000E+00   3.00000E+00   0.00000E+00   6.00000E-02   3.00000E+00   0.00000E+00   6.00000E-02   0.00000E+00   0.00000E+00             F             F   0.00000E+00   0.00000E+00   0.00000E+00   1.00000E+00   1.00000E+00   1.00000E+00   1.00000E+00   1.00000E+00   0.00000E+00   0.00000E+00   0.00000E+00   1.00000E+00   1.00000E+00   1.00000E+00   1.00000E+00   1.00000E+00   0.00000E+00   0.00000E+00   0.00000E+00
    13     14     15   5.00000E-01   1.41372E+01   0.00000E+00   3.00000E+00   0.00000E+00   6.00000E-02   3.00000E+00   0.00000E+00   6.00000E-02   0.00000E+00   0.00000E+00             F             F   0.00000E+00   0.00000E+00   0.00000E+00   1.00000E+00   1.00000E+00   1.00000E+00   1.00000E+00   1.00000E+00   0.00000E+00   0.00000E+00   0.00000E+00   1.00000E+00   1.00000E+00   1.00000E+00   1.00000E+00   1.00000E+00   0.00000E+00   0.00000E+00   0.00000E+00
    14     15     16   5.00000E-01   1.41372E+01   0.00000E+00   3.00000E+00   0.00000E+00   6.00000E-02   3.00000E+00   0.00000E+00   6.00000E-02   0.00000E+00   0.00000E+00             F             F   0.00000E+00   0.00000E+00   0.00000E+00   1.00000E+00   1.00000E+00   1.00000E+00   1.00000E+00   1.00000E+00   0.00000E+00   0.00000E+00   0.00000E+00   1.00000E+00   1.00000E+00   1.00000E+00   1.00000E+00   1.00000E+00   0.00000E+00   0.00000E+00   0.00000E+00
    15     16     17   5.00000E-01   1.41372E+01   0.00000E+00   3.00000E+00   0.00000E+00   6.00000E-02   3.00000E+00   0.00000E+00   6.00000E-02   0.00000E+00   0.00000E+00             F             F   0.00000E+00   0.00000E+00   0.00000E+00   1.00000E+00   1.00000E+00   1.00000E+00   1.00000E+00   1.00000E+00   0.00000E+00   0.00000E+00   0.00000E+00   1.00000E+00   1.00000E+00   1.00000E+00   1.00000E+00   1.00000E+00   0.00000E+00   0.00000E+00   0.00000E+00
    16     17     18   5.00000E-01   1.41372E+01   0.00000E+00   3.00000E+00   0.00000E+00   6.00000E-02   3.00000E+00   0.00000E+00   6.00000E-02   0.00000E+00   0.00000E+00             F             F   0.00000E+00   0.00000E+00   0.00000E+00   1.00000E+00   1.00000E+00   1.00000E+00   1.00000E+00   1.00000E+00   0.00000E+00   0.00000E+00   0.00000E+00   1.00000E+00   1.00000E+00   1.00000E+00   1.00000E+00   1.00000E+00   0.00000E+00   0.00000E+00   0.00000E+00
    17     18     19   5.00000E-01   1.41372E+01   0.00000E+00   3.00000E+00   0.00000E+00   6.00000E-02   3.00000E+00   0.00000E+00   6.00000E-02   0.00000E+00   0.00000E+00             F             F   0.00000E+00   0.00000E+00   0.00000E+00   1.00000E+00   1.00000E+00   1.00000E+00   1.00000E+00   1.00000E+00   0.00000E+00   0.00000E+00   0.00000E+00   1.00000E+00   1.00000E+00   1.00000E+00   1.00000E+00   1.00000E+00   0.00000E+00   0.00000E+00   0.00000E+00
    18     19     20   5.00000E-01   1.41372E+01   0.00000E+00   3.00000E+00   0.00000E+00   6.00000E-02   3.00000E+00   0.00000E+00   6.00000E-02   0.00000E+00   0.00000E+00             F             F   0.00000E+00   0.00000E+00   0.00000E+00   1.00000E+00   1.00000E+00   1.00000E+00   1.00000E+00   1.00000E+00   0.00000E+00   0.00000E+00   0.00000E+00   1.00000E+00   1.00000E+00   1.00000E+00   1.00000E+00   1.00000E+00   0.00000E+00   0.00000E+00   0.00000E+00
    19     20     21   5.00000E-01   1.41372E+01   0.00000E+00   3.00000E+00   0.00000E+00   6.00000E-02   3.00000E+00   0.00000E+00   6.00000E-02   0.00000E+00   0.00000E+00             F             F   0.00000E+00   0.00000E+00   0.00000E+00   1.00000E+00   1.00000E+00   1.00000E+00   1.00000E+00   1.00000E+00   0.00000E+00   0.00000E+00   0.00000E+00   1.00000E+00   1.00000E+00   1.00000E+00   1.00000E+00   1.00000E+00   0.00000E+00   0.00000E+00   0.00000E+00
    20     21     22   5.00000E-01   1.41372E+01   0.00000E+00   3.00000E+00   0.00000E+00   6.00000E-02   3.00000E+00   0.00000E+00   6.00000E-02   0.00000E+00   0.00000E+00             F             F   0.00000E+00   0.00000E+00   0.00000E+00   1.00000E+00   1.00000E+00   1.00000E+00   1.00000E+00   1.00000E+00   0.00000E+00   0.00000E+00   0.00000E+00   1.00000E+00   1.00000E+00   1.00000E+00   1.00000E+00   1.00000E+00   0.00000E+00   0.00000E+00   0.00000E+00
    21     22     23   5.00000E-01   1.41372E+01   0.00000E+00   3.00000E+00   0.00000E+00   6.00000E-02   3.00000E+00   0.00000E+00   6.00000E-02   0.00000E+00   0.00000E+00             F             F   0.00000E+00   0.00000E+00   0.00000E+00   1.00000E+00   1.00000E+00   1.00000E+00   1.00000E+00   1.00000E+00   0.00000E+00   0.00000E+00   0.00000E+00   1.00000E+00   1.00000E+00   1.00000E+00   1.00000E+00   1.00000E+00   0.00000E+00   0.00000E+00   0.00000E+00
    22     23     24   5.00000E-01   1.41372E+01   0.00000E+00   3.00000E+00   0.00000E+00   6.00000E-02   3.00000E+00   0.00000E+00   6.00000E-02   0.00000E+00   0.00000E+00             F             F   0.00000E+00   0.00000E+00   0.00000E+00   1.00000E+00   1.00000E+00   1.00000E+00   1.00000E+00   1.00000E+00   0.00000E+00   0.00000E+00   0.00000E+00   1.00000E+00   1.00000E+00   1.00000E+00   1.00000E+00   1.00000E+00   0.00000E+00   0.00000E+00   0.00000E+00
    23     24     25   5.00000E-01   1.41372E+01   0.00000E+00   3.00000E+00   0.00000E+00   6.00000E-02   3.00000E+00   0.00000E+00   6.00000E-02   0.00000E+00   0.00000E+00             F             F   0.00000E+00   0.00000E+00   0.00000E+00   1.00000E+00   1.00000E+00   1.00000E+00   1.00000E+00   1.00000E+00   0.00000E+00   0.00000E+00   0.00000E+00   1.00000E+00   1.00000E+00   1.00000E+00   1.00000E+00   1.00000E+00   0.00000E+00   0.00000E+00   0.00000E+00
    24     25     26   5.00000E-01   1.41372E+01   0.00000E+00   3.00000E+00   0.00000E+00   6.00000E-02   3.00000E+00   0.00000E+00   6.00000E-02   0.00000E+00   0.00000E+00             F             F   0.00000E+00   0.00000E+00   0.00000E+00   1.00000E+00   1.00000E+00   1.00000E+00   1.00000E+00   1.00000E+00   0.00000E+00   0.00000E+00   0.00000E+00   1.00000E+00   1.00000E+00   1.00000E+00   1.00000E+00   1.00000E+00   0.00000E+00   0.00000E+00   0.00000E+00
    25     26     27   5.00000E-01   1.41372E+01   0.00000E+00   3.00000E+00   0.00000E+00   6.00000E-02   3.00000E+00   0.00000E+00   6.00000E-02   0.00000E+00   0.00000E+00             F             F   0.00000E+00   0.00000E+00   0.00000E+00   1.00000E+00   1.00000E+00   1.00000E+00   1.00000E+00   1.00000E+00   0.00000E+00   0.00000E+00   0.00000E+00   1.00000E+00   1.00000E+00   1.00000E+00   1.00000E+00   1.00000E+00   0.00000E+00   0.00000E+00   0.00000E+00
    26     27     28   5.00000E-01   1.41372E+01   0.00000E+00   3.00000E+00   0.00000E+00   6.00000E-02   3.00000E+00   0.00000E+00   6.00000E-02   0.00000E+00   0.00000E+00             F             F   0.00000E+00   0.00000E+00   0.00000E+00   1.00000E+00   1.00000E+00   1.00000E+00   1.00000E+00   1.00000E+00   0.00000E+00   0.00000E+00   0.00000E+00   1.00000E+00   1.00000E+00   1.00000E+00   1.00000E+00   1.00000E+00   0.00000E+00   0.00000E+00   0.00000E+00
    27     28     29   5.00000E-01   1.41372E+01   0.00000E+00   3.00000E+00   0.00000E+00   6.00000E-02   3.00000E+00   0.00000E+00   6.00000E-02   0.00000E+00   0.00000E+00             F             F   0.00000E+00   0.00000E+00   0.00000E+00   1.00000E+00   1.00000E+00   1.00000E+00   1.00000E+00   1.00000E+00   0.00000E+00   0.00000E+00   0.00000E+00   1.00000E+00   1.00000E+00   1.00000E+00   1.00000E+00   1.00000E+00   0.00000E+00   0.00000E+00   0.00000E+00
    28     29     30   5.00000E-01   1.41372E+01   0.00000E+00   3.00000E+00   0.00000E+00   6.00000E-02   3.00000E+00   0.00000E+00   6.00000E-02   0.00000E+00   0.00000E+00             F             F   0.00000E+00   0.00000E+00   0.00000E+00   1.00000E+00   1.00000E+00   1.00000E+00   1.00000E+00   1.00000E+00   0.00000E+00   0.00000E+00   0.00000E+00   1.00000E+00   1.00000E+00   1.00000E+00   1.00000E+00   1.00000E+00   0.00000E+00   0.00000E+00   0.00000E+00
    29     30     31   5.00000E-01   1.41372E+01   0.00000E+00   3.00000E+00   0.00000E+00   6.00000E-02   3.00000E+00   0.00000E+00   6.00000E-02   0.00000E+00   0.00000E+00             F             F   0.00000E+00   0.00000E+00   0.00000E+00   1.00000E+00   1.00000E+00   1.00000E+00   1.00000E+00   1.00000E+00   0.00000E+00   0.00000E+00   0.00000E+00   1.00000E+00   1.00000E+00   1.00000E+00   1.00000E+00   1.00000E+00   0.00000E+00   0.00000E+00   0.00000E+00
    30     31     32   5.00000E-01   1.41372E+01   0.00000E+00   3.00000E+00   0.00000E+00   6.00000E-02   3.00000E+00   0.00000E+00   6.00000E-02   0.00000E+00   0.00000E+00             F             F   0.00000E+00   0.00000E+00   0.00000E+00   1.00000E+00   1.00000E+00   1.00000E+00   1.00000E+00   1.00000E+00   0.00000E+00   0.00000E+00   0.00000E+00   1.00000E+00   1.00000E+00   1.00000E+00   1.00000E+00   1.00000E+00   0.00000E+00   0.00000E+00   0.00000E+00
    31     32     33   5.00000E-01   1.41372E+01   0.00000E+00   3.00000E+00   0.00000E+00   6.00000E-02   3.00000E+00   0.00000E+00   6.00000E-02   0.00000E+00   0.00000E+00             F             F   0.00000E+00   0.00000E+00   0.00000E+00   1.00000E+00   1.00000E+00   1.00000E+00   1.00000E+00   1.00000E+00   0.00000E+00   0.00000E+00   0.00000E+00   1.00000E+00   1.00000E+00   1.00000E+00   1.00000E+00   1.00000E+00   0.00000E+00   0.00000E+00   0.00000E+00
    32     33     34   5.00000E-01   1.41372E+01   0.00000E+00   3.00000E+00   0.00000E+00   6.00000E-02   3.00000E+00   0.00000E+00   6.00000E-02   0.00000E+00   0.00000E+00             F             F   0.00000E+00   0.00000E+00   0.00000E+00   1.00000E+00   1.00000E+00   1.00000E+00   1.00000E+00   1.00000E+00   0.00000E+00   0.00000E+00   0.00000E+00   1.00000E+00   1.00000E+00   1.00000E+00   1.00000E+00   1.00000E+00   0.00000E+00   0.00000E+00   0.00000E+00
    33     34     35   5.00000E-01   1.41372E+01   0.00000E+00   3.00000E+00   0.00000E+00   6.00000E-02   3.00000E+00   0.00000E+00   6.00000E-02   0.00000E+00   0.00000E+00             F             F   0.00000E+00   0.00000E+00   0.00000E+00   1.00000E+00   1.00000E+00   1.00000E+00   1.00000E+00   1.00000E+00   0.00000E+00   0.00000E+00   0.00000E+00   1.00000E+00   1.00000E+00   1.00000E+00   1.00000E+00   1.00000E+00   0.00000E+00   0.00000E+00   0.00000E+00
    34     35     36   5.00000E-01   1.41372E+01   0.00000E+00   3.00000E+00   0.00000E+00   6.00000E-02   3.00000E+00   0.00000E+00   6.00000E-02   0.00000E+00   0.00000E+00             F             F   0.00000E+00   0.00000E+00   0.00000E+00   1.00000E+00   1.00000E+00   1.00000E+00   1.00000E+00   1.00000E+00   0.00000E+00   0.00000E+00   0.00000E+00   1.00000E+00   1.00000E+00   1.00000E+00   1.00000E+00   1.00000E+00   0.00000E+00   0.00000E+00   0.00000E+00
    35     36     37   5.00000E-01   1.41372E+01   0.00000E+00   3.00000E+00   0.00000E+00   6.00000E-02   3.00000E+00   0.00000E+00   6.00000E-02   0.00000E+00   0.00000E+00             F             F   0.00000E+00   0.00000E+00   0.00000E+00   1.00000E+00   1.00000E+00   1.00000E+00   1.00000E+00   1.00000E+00   0.00000E+00   0.00000E+00   0.00000E+00   1.00000E+00   1.00000E+00   1.00000E+00   1.00000E+00   1.00000E+00   0.00000E+00   0.00000E+00   0.00000E+00
    36     37     38   5.00000E-01   1.41372E+01   0.00000E+00   3.00000E+00   0.00000E+00   6.00000E-02   3.00000E+00   0.00000E+00   6.00000E-02   0.00000E+00   0.00000E+00             F             F   0.00000E+00   0.00000E+00   0.00000E+00   1.00000E+00   1.00000E+00   1.00000E+00   1.00000E+00   1.00000E+00   0.00000E+00   0.00000E+00   0.00000E+00   1.00000E+00   1.00000E+00   1.00000E+00   1.00000E+00   1.00000E+00   0.00000E+00   0.00000E+00   0.00000E+00
    37     38     39   5.00000E-01   1.41372E+01   0.00000E+00   3.00000E+00   0.00000E+00   6.00000E-02   3.00000E+00   0.00000E+00   6.00000E-02   0.00000E+00   0.00000E+00             F             F   0.00000E+00   0.00000E+00   0.00000E+00   1.00000E+00   1.00000E+00   1.00000E+00   1.00000E+00   1.00000E+00   0.00000E+00   0.00000E+00   0.00000E+00   1.00000E+00   1.00000E+00   1.00000E+00   1.00000E+00   1.00000E+00   0.00000E+00   0.00000E+00   0.00000E+00
    38     39     40   5.00000E-01   1.41372E+01   0.00000E+00   3.00000E+00   0.00000E+00   6.00000E-02   3.00000E+00   0.00000E+00   6.00000E-02   0.00000E+00   0.00000E+00             F             F   0.00000E+00   0.00000E+00   0.00000E+00   1.00000E+00   1.00000E+00   1.00000E+00   1.00000E+00   1.00000E+00   0.00000E+00   0.00000E+00   0.00000E+00   1.00000E+00   1.00000E+00   1.00000E+00   1.00000E+00   1.00000E+00   0.00000E+00   0.00000E+00   0.00000E+00
    39     40     41   5.00000E-01   1.41372E+01   0.00000E+00   3.00000E+00   0.00000E+00   6.00000E-02   3.00000E+00   0.00000E+00   6.00000E-02   0.00000E+00   0.00000E+00             F             F   0.00000E+00   0.00000E+00   0.00000E+00   1.00000E+00   1.00000E+00   1.00000E+00   1.00000E+00   1.00000E+00   0.00000E+00   0.00000E+00   0.00000E+00   1.00000E+00   1.00000E+00   1.00000E+00   1.00000E+00   1.00000E+00   0.00000E+00   0.00000E+00   0.00000E+00
    40     41     42   5.00000E-01   1.41372E+01   0.00000E+00   3.00000E+00   0.00000E+00   6.00000E-02   3.00000E+00   0.00000E+00   6.00000E-02   0.00000E+00   0.00000E+00             F             F   0.00000E+00   0.00000E+00   0.00000E+00   1.00000E+00   1.00000E+00   1.00000E+00   1.00000E+00   1.00000E+00   0.00000E+00   0.00000E+00   0.00000E+00   1.00000E+00   1.00000E+00   1.00000E+00   1.00000E+00   1.00000E+00   0.00000E+00   0.00000E+00   0.00000E+00
    41     42     43   5.00000E-01   1.41372E+01   0.00000E+00   3.00000E+00   0.00000E+00   6.00000E-02   3.00000E+00   0.00000E+00   6.00000E-02   0.00000E+00   0.00000E+00             F             F   0.00000E+00   0.00000E+00   0.00000E+00   1.00000E+00   1.00000E+00   1.00000E+00   1.00000E+00   1.00000E+00   0.00000E+00   0.00000E+00   0.00000E+00   1.00000E+00   1.00000E+00   1.00000E+00   1.00000E+00   1.00000E+00   0.00000E+00   0.00000E+00   0.00000E+00
    42     43      4   5.00000E-01   1.41372E+01   0.00000E+00   3.00000E+00   0.00000E+00   6.00000E-02   3.00000E+00   0.00000E+00   6.00000E-02   0.00000E+00   0.00000E+00             F             F   0.00000E+00   0.00000E+00   0.00000E+00   1.00000E+00   1.00000E+00   1.00000E+00   1.00000E+00   1.00000E+00   0.00000E+00   0.00000E+00   0.00000E+00   1.00000E+00   1.00000E+00   1.00000E+00   1.00000E+00   1.00000E+00   0.00000E+00   0.00000E+00   0.00000E+00
    43     44     45   5.00000E-01   1.41372E+01   0.00000E+00   3.00000E+00   0.00000E+00   6.00000E-02   3.00000E+00   0.00000E+00   6.00000E-02   0.00000E+00   0.00000E+00             F             F   0.00000E+00   0.00000E+00   0.00000E+00   1.00000E+00   1.00000E+00   1.00000E+00   1.00000E+00   1.00000E+00   0.00000E+00   0.00000E+00   0.00000E+00   1.00000E+00   1.00000E+00   1.00000E+00   1.00000E+00   1.00000E+00   0.00000E+00   0.00000E+00   0.00000E+00
    44     45     46   5.00000E-01   1.41372E+01   0.00000E+00   3.00000E+00   0.00000E+00   6.00000E-02   3.00000E+00   0.00000E+00   6.00000E-02   0.00000E+00   0.00000E+00             F             F   0.00000E+00   0.00000E+00   0.00000E+00   1.00000E+00   1.00000E+00   1.00000E+00   1.00000E+00   1.00000E+00   0.00000E+00   0.00000E+00   0.00000E+00   1.00000E+00   1.00000E+00   1.00000E+00   1.00000E+00   1.00000E+00   0.00000E+00   0.00000E+00   0.00000E+00
    45     46     47   5.00000E-01   1.41372E+01   0.00000E+00   3.00000E+00   0.00000E+00   6.00000E-02   3.00000E+00   0.00000E+00   6.00000E-02   0.00000E+00   0.00000E+00             F             F   0.00000E+00   0.00000E+00   0.00000E+00   1.00000E+00   1.00000E+00   1.00000E+00   1.00000E+00   1.00000E+00   0.00000E+00   0.00000E+00   0.00000E+00   1.00000E+00   1.00000E+00   1.00000E+00   1.00000E+00   1.00000E+00   0.00000E+00   0.00000E+00   0.00000E+00
    46     47     48   5.00000E-01   1.41372E+01   0.00000E+00   3.00000E+00   0.00000E+00   6.00000E-02   3.00000E+00   0.00000E+00   6.00000E-02   0.00000E+00   0.00000E+00             F             F   0.00000E+00   0.00000E+00   0.00000E+00   1.00000E+00   1.00000E+00   1.00000E+00   1.00000E+00   1.00000E+00   0.00000E+00   0.00000E+00   0.00000E+00   1.00000E+00   1.00000E+00   1.00000E+00   1.00000E+00   1.00000E+00   0.00000E+00   0.00000E+00   0.00000E+00
    47     48     49   5.00000E-01   1.41372E+01   0.00000E+00   3.00000E+00   0.00000E+00   6.00000E-02   3.00000E+00   0.00000E+00   6.00000E-02   0.00000E+00   0.00000E+00             F             F   0.00000E+00   0.00000E+00   0.00000E+00   1.00000E+00   1.00000E+00   1.00000E+00   1.00000E+00   1.00000E+00   0.00000E+00   0.00000E+00   0.00000E+00   1.00000E+00   1.00000E+00   1.00000E+00   1.00000E+00   1.00000E+00   0.00000E+00   0.00000E+00   0.00000E+00
    48     49     50   5.00000E-01   1.41372E+01   0.00000E+00   3.00000E+00   0.00000E+00   6.00000E-02   3.00000E+00   0.00000E+00   6.00000E-02   0.00000E+00   0.00000E+00             F             F   0.00000E+00   0.00000E+00   0.00000E+00   1.00000E+00   1.00000E+00   1.00000E+00   1.00000E+00   1.00000E+00   0.00000E+00   0.00000E+00   0.00000E+00   1.00000E+00   1.00000E+00   1.00000E+00   1.00000E+00   1.00000E+00   0.00000E+00   0.00000E+00   0.00000E+00
    49     50     51   5.00000E-01   1.41372E+01   0.00000E+00   3.00000E+00   0.00000E+00   6.00000E-02   3.00000E+00   0.00000E+00   6.00000E-02   0.00000E+00   0.00000E+00             F             F   0.00000E+00   0.00000E+00   0.00000E+00   1.00000E+00   1.00000E+00   1.00000E+00   1.00000E+00   1.00000E+00   0.00000E+00   0.00000E+00   0.00000E+00   1.00000E+00   1.00000E+00   1.00000E+00   1.00000E+00   1.00000E+00   0.00000E+00   0.00000E+00   0.00000E+00
    50     51     52   5.00000E-01   1.41372E+01   0.00000E+00   3.00000E+00   0.00000E+00   6.00000E-02   3.00000E+00   0.00000E+00   6.00000E-02   0.00000E+00   0.00000E+00             F             F   0.00000E+00   0.00000E+00   0.00000E+00   1.00000E+00   1.00000E+00   1.00000E+00   1.00000E+00   1.00000E+00   0.00000E+00   0.00000E+00   0.00000E+00   1.00000E+00   1.00000E+00   1.00000E+00   1.00000E+00   1.00000E+00   0.00000E+00   0.00000E+00   0.00000E+00
    51     52     53   5.00000E-01   1.41372E+01   0.00000E+00   3.00000E+00   0.00000E+00   6.00000E-02   3.00000E+00   0.00000E+00   6.00000E-02   0.00000E+00   0.00000E+00             F             F   0.00000E+00   0.00000E+00   0.00000E+00   1.00000E+00   1.00000E+00   1.00000E+00   1.00000E+00   1.00000E+00   0.00000E+00   0.00000E+00   0.00000E+00   1.00000E+00   1.00000E+00   1.00000E+00   1.00000E+00   1.00000E+00   0.00000E+00   0.00000E+00   0.00000E+00
    52     53     54   5.00000E-01   1.41372E+01   0.00000E+00   3.00000E+00   0.00000E+00   6.00000E-02   3.00000E+00   0.00000E+00   6.00000E-02   0.00000E+00   0.00000E+00             F             F   0.00000E+00   0.00000E+00   0.00000E+00   1.00000E+00   1.00000E+00   1.00000E+00   1.00000E+00   1.00000E+00   0.00000E+00   0.00000E+00   0.00000E+00   1.00000E+00   1.00000E+00   1.00000E+00   1.00000E+00   1.00000E+00   0.00000E+00   0.00000E+00   0.00000E+00
    53     54     55   5.00000E-01   1.41372E+01   0.00000E+00   3.00000E+00   0.00000E+00   6.00000E-02   3.00000E+00   0.00000E+00   6.00000E-02   0.00000E+00   0.00000E+00             F             F   0.00000E+00   0.00000E+00   0.00000E+00   1.00000E+00   1.00000E+00   1.00000E+00   1.00000E+00   1.00000E+00   0.00000E+00   0.00000E+00   0.00000E+00   1.00000E+00   1.00000E+00   1.00000E+00   1.00000E+00   1.00000E+00   0.00000E+00   0.00000E+00   0.00000E+00
    54     55     56   5.00000E-01   1.41372E+01   0.00000E+00   3.00000E+00   0.00000E+00   6.00000E-02   3.00000E+00   0.00000E+00   6.00000E-02   0.00000E+00   0.00000E+00             F             F   0.00000E+00   0.00000E+00   0.00000E+00   1.00000E+00   1.00000E+00   1.00000E+00   1.00000E+00   1.00000E+00   0.00000E+00   0.00000E+00   0.00000E+00   1.00000E+00   1.00000E+00   1.00000E+00   1.00000E+00   1.00000E+00   0.00000E+00   0.00000E+00   0.00000E+00
    55     56     57   5.00000E-01   1.41372E+01   0.00000E+00   3.00000E+00   0.00000E+00   6.00000E-02   3.00000E+00   0.00000E+00   6.00000E-02   0.00000E+00   0.00000E+00             F             F   0.00000E+00   0.00000E+00   0.00000E+00   1.00000E+00   1.00000E+00   1.00000E+00   1.00000E+00   1.00000E+00   0.00000E+00   0.00000E+00   0.00000E+00   1.00000E+00   1.00000E+00   1.00000E+00   1.00000E+00   1.00000E+00   0.00000E+00   0.00000E+00   0.00000E+00
    56     57     58   5.00000E-01   1.41372E+01   0.00000E+00   3.00000E+00   0.00000E+00   6.00000E-02   3.00000E+00   0.00000E+00   6.00000E-02   0.00000E+00   0.00000E+00             F             F   0.00000E+00   0.00000E+00   0.00000E+00   1.00000E+00   1.00000E+00   1.00000E+00   1.00000E+00   1.00000E+00   0.00000E+00   0.00000E+00   0.00000E+00   1.00000E+00   1.00000E+00   1.00000E+00   1.00000E+00   1.00000E+00   0.00000E+00   0.00000E+00   0.00000E+00
    57     58     59   5.00000E-01   1.41372E+01   0.00000E+00   3.00000E+00   0.00000E+00   6.00000E-02   3.00000E+00   0.00000E+00   6.00000E-02   0.00000E+00   0.00000E+00             F             F   0.00000E+00   0.00000E+00   0.00000E+00   1.00000E+00   1.00000E+00   1.00000E+00   1.00000E+00   1.00000E+00   0.00000E+00   0.00000E+00   0.00000E+00   1.00000E+00   1.00000E+00   1.00000E+00   1.00000E+00   1.00000E+00   0.00000E+00   0.00000E+00   0.00000E+00
    58     59     60   5.00000E-01   1.41372E+01   0.00000E+00   3.00000E+00   0.00000E+00   6.00000E-02   3.00000E+00   0.00000E+00   6.00000E-02   0.00000E+00   0.00000E+00             F             F   0.00000E+00   0.00000E+00   0.00000E+00   1.00000E+00   1.00000E+00   1.00000E+00   1.00000E+00   1.00000E+00   0.00000E+00   0.00000E+00   0.00000E+00   1.00000E+00   1.00000E+00   1.00000E+00   1.00000E+00   1.00000E+00   0.00000E+00   0.00000E+00   0.00000E+00
    59     60     61   5.00000E-01   1.41372E+01   0.00000E+00   3.00000E+00   0.00000E+00   6.00000E-02   3.00000E+00   0.00000E+00   6.00000E-02   0.00000E+00   0.00000E+00             F             F   0.00000E+00   0.00000E+00   0.00000E+00   1.00000E+00   1.00000E+00   1.00000E+00   1.00000E+00   1.00000E+00   0.00000E+00   0.00000E+00   0.00000E+00   1.00000E+00   1.00000E+00   1.00000E+00   1.00000E+00   1.00000E+00   0.00000E+00   0.00000E+00   0.00000E+00
    60     61     62   5.00000E-01   1.41372E+01   0.00000E+00   3.00000E+00   0.00000E+00   6.00000E-02   3.00000E+00   0.00000E+00   6.00000E-02   0.00000E+00   0.00000E+00             F             F   0.00000E+00   0.00000E+00   0.00000E+00   1.00000E+00   1.00000E+00   1.00000E+00   1.00000E+00   1.00000E+00   0.00000E+00   0.00000E+00   0.00000E+00   1.00000E+00   1.00000E+00   1.00000E+00   1.00000E+00   1.00000E+00   0.00000E+00   0.00000E+00   0.00000E+00
    61     62      2   5.00000E-01   1.41372E+01   0.00000E+00   3.00000E+00   0.00000E+00   6.00000E-02   3.00000E+00   0.00000E+00   6.00000E-02   0.00000E+00   0.00000E+00             F             F   0.00000E+00   0.00000E+00   0.00000E+00   1.00000E+00   1.00000E+00   1.00000E+00   1.00000E+00   1.00000E+00   0.00000E+00   0.00000E+00   0.00000E+00   1.00000E+00   1.00000E+00   1.00000E+00   1.00000E+00   1.00000E+00   0.00000E+00   0.00000E+00   1.00000E+00



Requested Member Outputs


   Label         Xi          Yi          Zi      InpMbrIndx   StartXi     StartYi     StartZi      EndXi       EndYi       EndZi        Loc    
    (-)          (m)         (m)         (m)        (-)         (m)         (m)         (m)         (m)         (m)         (m)         (-)    



 Requested Joint Outputs


   Label         Xi          Yi          Zi      InpJointID
    (-)          (m)         (m)         (m)        (-)    



 Wave Kinematics


       m              k          Omega[m]       Direction    REAL(DFT{WaveElev})  IMAG(DFT{WaveElev})
      (-)           (1/m)        (rad/s)          (deg)             (m)                  (m)         
      -7259     1.60983E+01    -1.25646E+01     0.00000E+00    -2.38681E-01         -3.74771E-01
      -7258     1.60938E+01    -1.25629E+01     0.00000E+00    -3.56541E-01         -9.94530E-01
      -7257     1.60894E+01    -1.25612E+01     0.00000E+00     4.08066E-01          5.04414E-01
      -7256     1.60850E+01    -1.25594E+01     0.00000E+00     4.21315E-01         -1.43379E-01
      -7255     1.60805E+01    -1.25577E+01     0.00000E+00     5.29497E-01         -1.26743E-01
      -7254     1.60761E+01    -1.25560E+01     0.00000E+00     1.06769E+00          2.57661E-01
      -7253     1.60717E+01    -1.25543E+01     0.00000E+00    -6.30489E-01          6.98803E-01
      -7252     1.60672E+01    -1.25525E+01     0.00000E+00    -1.26531E-01         -3.09413E-01
      -7251     1.60628E+01    -1.25508E+01     0.00000E+00     6.30852E-01         -7.19848E-01
      -7250     1.60584E+01    -1.25491E+01     0.00000E+00    -9.80468E-02         -7.54175E-01
      -7249     1.60540E+01    -1.25473E+01     0.00000E+00     7.04767E-02          3.67463E-01
      -7248     1.60495E+01    -1.25456E+01     0.00000E+00    -9.58122E-01         -2.14466E-01
      -7247     1.60451E+01    -1.25439E+01     0.00000E+00     6.96528E-02          8.62519E-01
      -7246     1.60407E+01    -1.25421E+01     0.00000E+00     1.09700E+00         -7.90977E-01
      -7245     1.60362E+01    -1.25404E+01     0.00000E+00    -6.50118E-01         -3.06150E-01
      -7244     1.60318E+01    -1.25387E+01     0.00000E+00     7.20178E-01          1.29711E-01
      -7243     1.60274E+01    -1.25369E+01     0.00000E+00     2.58692E-01          3.74370E-01
      -7242     1.60230E+01    -1.25352E+01     0.00000E+00     2.48755E-01          3.26861E-01
      -7241     1.60185E+01    -1.25335E+01     0.00000E+00     8.61359E-01         -3.76489E-01
      -7240     1.60141E+01    -1.25318E+01     0.00000E+00    -1.33981E+00         -1.19032E+00
      -7239     1.60097E+01    -1.25300E+01     0.00000E+00    -6.22332E-01          8.64708E-02
      -7238     1.60053E+01    -1.25283E+01     0.00000E+00     1.47115E+00          7.70085E-01
      -7237     1.60008E+01    -1.25266E+01     0.00000E+00     1.10290E-01          5.00759E-01
      -7236     1.59964E+01    -1.25248E+01     0.00000E+00     5.31545E-01          1.00528E-02
      -7235     1.59920E+01    -1.25231E+01     0.00000E+00    -1.73339E-01         -4.89776E-02
      -7234     1.59876E+01    -1.25214E+01     0.00000E+00     8.18515E-01          9.96565E-02
      -7233     1.59832E+01    -1.25196E+01     0.00000E+00     6.72678E-01         -3.57498E-01
      -7232     1.59787E+01    -1.25179E+01     0.00000E+00    -1.06523E-01         -2.88236E-02
      -7231     1.59743E+01    -1.25162E+01     0.00000E+00     1.57107E+00         -2.52672E-01
      -7230     1.59699E+01    -1.25144E+01     0.00000E+00     1.61167E-01          1.54541E-01
      -7229     1.59655E+01    -1.25127E+01     0.00000E+00     6.43383E-01         -1.13859E-01
      -7228     1.59611E+01    -1.25110E+01     0.00000E+00     6.93020E-01          7.43026E-01
      -7227     1.59567E+01    -1.25093E+01     0.00000E+00    -1.99698E-01          6.39453E-01
      -7226     1.59522E+01    -1.25075E+01     0.00000E+00    -2.80077E-01          3.66529E-01
      -7225     1.59478E+01    -1.25058E+01     0.00000E+00    -3.48909E-01         -9.80721E-01
      -7224     1.59434E+01    -1.25041E+01     0.00000E+00    -4.55565E-01          7.16788E-02
      -7223     1.59390E+01    -1.25023E+01     0.00000E+00    -4.47811E-01          5.50178E-03
      -7222     1.59346E+01    -1.25006E+01     0.00000E+00     6.05033E-01          1.12061E+00
      -7221     1.59302E+01    -1.24989E+01     0.00000E+00    -8.56964E-01          2.91790E-01
      -7220     1.59258E+01    -1.24971E+01     0.00000E+00     4.94389E-02         -9.98854E-02
      -7219     1.59214E+01    -1.24954E+01     0.00000E+00    -9.20028E-01          2.10132E-01
      -7218     1.59169E+01    -1.24937E+01     0.00000E+00    -1.57893E+00         -3.91028E-01
      -7217     1.59125E+01    -1.24919E+01     0.00000E+00    -9.32991E-01         -5.55140E-01
      -7216     1.59081E+01    -1.24902E+01     0.00000E+00     7.14067E-02          1.10796E-01
      -7215     1.59037E+01    -1.24885E+01     0.00000E+00     6.45957E-01         -1.31902E-02
      -7214     1.58993E+01    -1.24867E+01     0.00000E+00     1.04663E-01         -7.71698E-01
      -7213     1.58949E+01    -1.24850E+01     0.00000E+00     7.21685E-01         -1.20227E-01
      -7212     1.58905E+01    -1.24833E+01     0.00000E+00    -2.94743E-01          5.98216E-01
      -7211     1.58861E+01    -1.24816E+01     0.00000E+00     5.27226E-01         -2.47341E-01
      -7210     1.58817E+01    -1.24798E+01     0.00000E+00    -8.49053E-01          1.55830E+00
      -7209     1.58773E+01    -1.24781E+01     0.00000E+00    -3.31445E-01          7.47446E-01
      -7208     1.58729E+01    -1.24764E+01     0.00000E+00    -1.36912E-02          3.37154E-01
      -7207     1.58685E+01    -1.24746E+01     0.00000E+00     1.35610E+00          2.48957E-01
      -7206     1.58641E+01    -1.24729E+01     0.00000E+00    -9.03458E-01         -2.72633E-01
      -7205     1.58597E+01    -1.24712E+01     0.00000E+00     8.56076E-01          2.06175E-01
      -7204     1.58553E+01    -1.24694E+01     0.00000E+00     1.69689E-01          2.75104E-01
      -7203     1.58509E+01    -1.24677E+01     0.00000E+00    -1.48850E-01         -1.08687E-01
      -7202     1.58465E+01    -1.24660E+01     0.00000E+00     1.99669E-02         -5.00102E-01
      -7201     1.58421E+01    -1.24642E+01     0.00000E+00    -4.81775E-01         -9.30028E-02
      -7200     1.58377E+01    -1.24625E+01     0.00000E+00     4.49198E-01         -3.36855E-01
      -7199     1.58333E+01    -1.24608E+01     0.00000E+00    -2.67312E-01         -6.18117E-01
      -7198     1.58289E+01    -1.24591E+01     0.00000E+00     4.81550E-01          7.70988E-01
      -7197     1.58245E+01    -1.24573E+01     0.00000E+00     1.43085E+00          7.29490E-02
      -7196     1.58201E+01    -1.24556E+01     0.00000E+00    -8.02095E-02         -1.11103E+00
      -7195     1.58157E+01    -1.24539E+01     0.00000E+00     4.12059E-01         -8.77052E-01
      -7194     1.58113E+01    -1.24521E+01     0.00000E+00     1.29657E-01         -8.24940E-01
      -7193     1.58069E+01    -1.24504E+01     0.00000E+00    -2.67259E-01          4.74604E-02
      -7192     1.58025E+01    -1.24487E+01     0.00000E+00     1.62149E-01         -8.58056E-02
      -7191     1.57981E+01    -1.24469E+01     0.00000E+00    -3.90479E-01         -7.02604E-01
      -7190     1.57937E+01    -1.24452E+01     0.00000E+00    -3.93641E-01          7.46328E-01
      -7189     1.57893E+01    -1.24435E+01     0.00000E+00    -1.62698E-01         -1.31066E+00
      -7188     1.57849E+01    -1.24417E+01     0.00000E+00     1.09561E-01         -2.92216E-02
      -7187     1.57805E+01    -1.24400E+01     0.00000E+00     5.99282E-01         -6.10337E-02
      -7186     1.57761E+01    -1.24383E+01     0.00000E+00     4.65639E-01         -1.28106E+00
      -7185     1.57717E+01    -1.24366E+01     0.00000E+00     8.48710E-01          1.64859E-01
      -7184     1.57673E+01    -1.24348E+01     0.00000E+00     3.29474E-02          7.93885E-01
      -7183     1.57630E+01    -1.24331E+01     0.00000E+00    -7.70365E-01         -1.09215E-01
      -7182     1.57586E+01    -1.24314E+01     0.00000E+00     4.57315E-02         -9.80600E-01
      -7181     1.57542E+01    -1.24296E+01     0.00000E+00    -2.78190E-01         -7.10241E-01
      -7180     1.57498E+01    -1.24279E+01     0.00000E+00    -5.95811E-01         -5.03202E-01
      -7179     1.57454E+01    -1.24262E+01     0.00000E+00     1.14143E+00         -6.62573E-01
      -7178     1.57410E+01    -1.24244E+01     0.00000E+00     6.25619E-01         -1.17998E+00
      -7177     1.57366E+01    -1.24227E+01     0.00000E+00     2.59496E-01          5.44378E-01
      -7176     1.57322E+01    -1.24210E+01     0.00000E+00     9.84040E-01          5.57471E-01
      -7175     1.57279E+01    -1.24192E+01     0.00000E+00    -1.68688E-01          8.26738E-01
      -7174     1.57235E+01    -1.24175E+01     0.00000E+00    -3.98583E-01          1.01737E-02
      -7173     1.57191E+01    -1.24158E+01     0.00000E+00    -1.15931E+00         -8.21406E-01
      -7172     1.57147E+01    -1.24141E+01     0.00000E+00     1.58567E-01          8.85222E-01
      -7171     1.57103E+01    -1.24123E+01     0.00000E+00    -3.95524E-01          7.48191E-01
      -7170     1.57059E+01    -1.24106E+01     0.00000E+00    -1.84450E-01          7.57857E-02
      -7169     1.57016E+01    -1.24089E+01     0.00000E+00    -1.01554E+00          1.29990E-01
      -7168     1.56972E+01    -1.24071E+01     0.00000E+00    -1.02358E+00          3.62390E-01
      -7167     1.56928E+01    -1.24054E+01     0.00000E+00     3.38313E-02          4.80306E-02
      -7166     1.56884E+01    -1.24037E+01     0.00000E+00     1.11184E+00          1.75036E+00
      -7165     1.56841E+01    -1.24019E+01     0.00000E+00    -1.17653E+00          2.46228E-01
      -7164     1.56797E+01    -1.24002E+01     0.00000E+00     1.43515E-01          8.87605E-01
      -7163     1.56753E+01    -1.23985E+01     0.00000E+00     4.62176E-01         -6.02389E-01
      -7162     1.56709E+01    -1.23967E+01     0.00000E+00     1.65366E-02         -1.02237E+00
      -7161     1.56665E+01    -1.23950E+01     0.00000E+00    -6.31198E-01         -3.90279E-01
      -7160     1.56622E+01    -1.23933E+01     0.00000E+00    -5.58023E-01         -5.78225E-01
      -7159     1.56578E+01    -1.23916E+01     0.00000E+00    -8.49230E-01          2.25885E-01
      -7158     1.56534E+01    -1.23898E+01     0.00000E+00     1.07844E-01          1.08457E-01
      -7157     1.56490E+01    -1.23881E+01     0.00000E+00    -5.95561E-02          8.49171E-01
      -7156     1.56447E+01    -1.23864E+01     0.00000E+00     4.61273E-01         -4.44545E-01
      -7155     1.56403E+01    -1.23846E+01     0.00000E+00     2.10394E-01          7.47663E-01
      -7154     1.56359E+01    -1.23829E+01     0.00000E+00     3.24967E-01         -1.27234E+00
      -7153     1.56316E+01    -1.23812E+01     0.00000E+00     1.29273E+00          5.65520E-01
      -7152     1.56272E+01    -1.23794E+01     0.00000E+00    -3.77161E-01          2.90361E-01
      -7151     1.56228E+01    -1.23777E+01     0.00000E+00    -4.51195E-01         -1.61026E-01
      -7150     1.56185E+01    -1.23760E+01     0.00000E+00    -7.24119E-02          6.09643E-01
      -7149     1.56141E+01    -1.23742E+01     0.00000E+00    -9.77403E-01         -7.08305E-01
      -7148     1.56097E+01    -1.23725E+01     0.00000E+00     7.86509E-02          5.58723E-01
      -7147     1.56053E+01    -1.23708E+01     0.00000E+00     8.85077E-01         -6.26505E-01
      -7146     1.56010E+01    -1.23690E+01     0.00000E+00    -3.71271E-01          4.41984E-01
      -7145     1.55966E+01    -1.23673E+01     0.00000E+00     7.72171E-01         -1.18474E+00
      -7144     1.55922E+01    -1.23656E+01     0.00000E+00    -9.16791E-01         -2.19465E-01
      -7143     1.55879E+01    -1.23639E+01     0.00000E+00    -7.57716E-01          7.78141E-01
      -7142     1.55835E+01    -1.23621E+01     0.00000E+00     4.16701E-01         -1.17385E+00
      -7141     1.55792E+01    -1.23604E+01     0.00000E+00     1.23693E+00         -1.19418E-01
      -7140     1.55748E+01    -1.23587E+01     0.00000E+00     4.78238E-01         -5.51821E-01
      -7139     1.55704E+01    -1.23569E+01     0.00000E+00     3.82702E-01         -2.38496E-01
      -7138     1.55661E+01    -1.23552E+01     0.00000E+00    -7.96248E-01         -7.18308E-01
      -7137     1.55617E+01    -1.23535E+01     0.00000E+00    -4.40333E-01         -6.36030E-01
      -7136     1.55573E+01    -1.23517E+01     0.00000E+00     7.67289E-01         -1.08275E+00
      -7135     1.55530E+01    -1.23500E+01     0.00000E+00     6.19877E-01          2.94252E-01
      -7134     1.55486E+01    -1.23483E+01     0.00000E+00    -5.80845E-01          1.92693E-01
      -7133     1.55443E+01    -1.23465E+01     0.00000E+00     1.67605E-01          1.43299E-01
      -7132     1.55399E+01    -1.23448E+01     0.00000E+00     1.23806E+00         -2.75166E-01
      -7131     1.55356E+01    -1.23431E+01     0.00000E+00    -3.34576E-01          1.98176E-01
      -7130     1.55312E+01    -1.23414E+01     0.00000E+00    -3.22434E-01          1.04161E+00
      -7129     1.55268E+01    -1.23396E+01     0.00000E+00    -9.72589E-01          6.58810E-01
      -7128     1.55225E+01    -1.23379E+01     0.00000E+00     3.54171E-01          7.07242E-01
      -7127     1.55181E+01    -1.23362E+01     0.00000E+00     1.00041E+00         -1.23076E-01
      -7126     1.55138E+01    -1.23344E+01     0.00000E+00    -4.90236E-01          3.54684E-02
      -7125     1.55094E+01    -1.23327E+01     0.00000E+00     2.38059E-01          2.11955E-02
      -7124     1.55051E+01    -1.23310E+01     0.00000E+00    -1.28400E-01          1.67573E-01
      -7123     1.55007E+01    -1.23292E+01     0.00000E+00    -6.89494E-02         -8.09657E-01
      -7122     1.54964E+01    -1.23275E+01     0.00000E+00     4.01382E-01          2.20451E-01
      -7121     1.54920E+01    -1.23258E+01     0.00000E+00    -4.24340E-01         -1.90529E-01
      -7120     1.54877E+01    -1.23240E+01     0.00000E+00     5.83660E-01         -4.94745E-02
      -7119     1.54833E+01    -1.23223E+01     0.00000E+00     1.47218E-02         -1.29992E+00
      -7118     1.54790E+01    -1.23206E+01     0.00000E+00    -6.22317E-01          1.02654E+00
      -7117     1.54746E+01    -1.23189E+01     0.00000E+00     7.94951E-01         -9.38990E-01
      -7116     1.54703E+01    -1.23171E+01     0.00000E+00    -9.57501E-01          5.79969E-02
      -7115     1.54659E+01    -1.23154E+01     0.00000E+00    -6.71553E-01          6.99781E-01
      -7114     1.54616E+01    -1.23137E+01     0.00000E+00     2.52118E-01         -4.53455E-01
      -7113     1.54572E+01    -1.23119E+01     0.00000E+00     2.20720E-01         -4.45201E-01
      -7112     1.54529E+01    -1.23102E+01     0.00000E+00     3.91290E-01          8.74663E-01
      -7111     1.54485E+01    -1.23085E+01     0.00000E+00    -7.26276E-01          1.14348E-04
      -7110     1.54442E+01    -1.23067E+01     0.00000E+00    -5.57639E-01          3.87221E-01
      -7109     1.54398E+01    -1.23050E+01     0.00000E+00    -6.90928E-02         -4.32703E-02
      -7108     1.54355E+01    -1.23033E+01     0.00000E+00     5.08889E-01          7.30639E-01
      -7107     1.54312E+01    -1.23015E+01     0.00000E+00    -2.26526E-01          1.20974E-02
      -7106     1.54268E+01    -1.22998E+01     0.00000E+00    -3.08846E-01         -4.54405E-01
      -7105     1.54225E+01    -1.22981E+01     0.00000E+00     8.66533E-02         -3.40869E-01
      -7104     1.54181E+01    -1.22964E+01     0.00000E+00    -1.62268E-01         -3.08033E-01
      -7103     1.54138E+01    -1.22946E+01     0.00000E+00     9.66578E-01         -2.44429E-01
      -7102     1.54095E+01    -1.22929E+01     0.00000E+00     4.37678E-01         -4.50464E-01
      -7101     1.54051E+01    -1.22912E+01     0.00000E+00    -2.71124E-01         -6.10045E-02
      -7100     1.54008E+01    -1.22894E+01     0.00000E+00    -5.80703E-01         -6.29158E-01
      -7099     1.53964E+01    -1.22877E+01     0.00000E+00     3.16541E-02          4.01337E-01
      -7098     1.53921E+01    -1.22860E+01     0.00000E+00     7.14603E-01         -4.17387E-01
      -7097     1.53878E+01    -1.22842E+01     0.00000E+00     1.28326E-01         -6.54829E-01
      -7096     1.53834E+01    -1.22825E+01     0.00000E+00     1.22661E+00         -8.46443E-01
      -7095     1.53791E+01    -1.22808E+01     0.00000E+00     2.11075E-01         -1.85231E-02
      -7094     1.53748E+01    -1.22790E+01     0.00000E+00     1.24983E-01         -9.58830E-02
      -7093     1.53704E+01    -1.22773E+01     0.00000E+00    -4.55534E-01          2.00727E-01
      -7092     1.53661E+01    -1.22756E+01     0.00000E+00    -1.05734E-01          3.56615E-01
      -7091     1.53618E+01    -1.22738E+01     0.00000E+00    -6.97256E-01          2.17347E-01
      -7090     1.53574E+01    -1.22721E+01     0.00000E+00     1.54383E-01         -6.01531E-02
      -7089     1.53531E+01    -1.22704E+01     0.00000E+00     3.94363E-01          6.54144E-01
      -7088     1.53488E+01    -1.22687E+01     0.00000E+00    -6.13196E-01          2.32399E-01
      -7087     1.53444E+01    -1.22669E+01     0.00000E+00     6.29438E-01         -1.79759E-01
      -7086     1.53401E+01    -1.22652E+01     0.00000E+00     2.91594E-01         -2.62124E-01
      -7085     1.53358E+01    -1.22635E+01     0.00000E+00     1.54988E+00         -6.31603E-01
      -7084     1.53314E+01    -1.22617E+01     0.00000E+00    -4.35613E-01          4.09223E-01
      -7083     1.53271E+01    -1.22600E+01     0.00000E+00    -5.49405E-01         -5.52509E-01
      -7082     1.53228E+01    -1.22583E+01     0.00000E+00     4.29504E-01         -3.81851E-01
      -7081     1.53185E+01    -1.22565E+01     0.00000E+00    -3.98625E-01         -7.37579E-01
      -7080     1.53141E+01    -1.22548E+01     0.00000E+00    -6.27062E-02         -3.28261E-01
      -7079     1.53098E+01    -1.22531E+01     0.00000E+00     7.28708E-02         -1.02090E+00
      -7078     1.53055E+01    -1.22513E+01     0.00000E+00    -1.68875E-01         -8.32445E-02
      -7077     1.53012E+01    -1.22496E+01     0.00000E+00    -8.63436E-01          7.71398E-01
      -7076     1.52968E+01    -1.22479E+01     0.00000E+00    -1.71642E+00          3.77695E-01
      -7075     1.52925E+01    -1.22462E+01     0.00000E+00     2.01699E-01          2.48152E-01
      -7074     1.52882E+01    -1.22444E+01     0.00000E+00    -9.09617E-01          3.72199E-01
      -7073     1.52839E+01    -1.22427E+01     0.00000E+00     2.82344E-01         -1.88114E-01
      -7072     1.52795E+01    -1.22410E+01     0.00000E+00     4.72828E-01          1.11792E-01
      -7071     1.52752E+01    -1.22392E+01     0.00000E+00    -1.68803E-01         -8.46771E-01
      -7070     1.52709E+01    -1.22375E+01     0.00000E+00     2.77122E-01         -5.82919E-01
      -7069     1.52666E+01    -1.22358E+01     0.00000E+00    -1.00487E-01         -3.07438E-01
      -7068     1.52623E+01    -1.22340E+01     0.00000E+00    -1.04178E-02         -4.66287E-01
      -7067     1.52579E+01    -1.22323E+01     0.00000E+00    -5.42564E-01          5.11128E-01
      -7066     1.52536E+01    -1.22306E+01     0.00000E+00    -2.72147E-01          4.62625E-02
      -7065     1.52493E+01    -1.22288E+01     0.00000E+00    -9.02789E-01         -3.39077E-01
      -7064     1.52450E+01    -1.22271E+01     0.00000E+00     1.90608E-01         -1.00149E+00
      -7063     1.52407E+01    -1.22254E+01     0.00000E+00     3.39137E-01         -2.73205E-01
      -7062     1.52364E+01    -1.22237E+01     0.00000E+00    -5.47281E-03         -8.25080E-01
      -7061     1.52320E+01    -1.22219E+01     0.00000E+00     1.99119E-01         -9.85815E-01
      -7060     1.52277E+01    -1.22202E+01     0.00000E+00    -9.72530E-01         -1.09302E+00
      -7059     1.52234E+01    -1.22185E+01     0.00000E+00     1.06573E+00         -1.21972E+00
      -7058     1.52191E+01    -1.22167E+01     0.00000E+00    -3.39358E-01          5.82403E-01
      -7057     1.52148E+01    -1.22150E+01     0.00000E+00    -1.03631E+00         -2.42695E-01
      -7056     1.52105E+01    -1.22133E+01     0.00000E+00     5.06493E-01         -1.46994E-01
      -7055     1.52062E+01    -1.22115E+01     0.00000E+00     4.50332E-01         -2.35815E-01
      -7054     1.52019E+01    -1.22098E+01     0.00000E+00    -7.75079E-02         -2.70804E-01
      -7053     1.51976E+01    -1.22081E+01     0.00000E+00    -2.66014E-01          6.12659E-01
      -7052     1.51932E+01    -1.22063E+01     0.00000E+00    -4.41412E-02          1.93346E+00
      -7051     1.51889E+01    -1.22046E+01     0.00000E+00     2.04348E-01         -5.95121E-01
      -7050     1.51846E+01    -1.22029E+01     0.00000E+00     1.48885E-01         -3.28615E-01
      -7049     1.51803E+01    -1.22011E+01     0.00000E+00     3.23341E-02          5.64477E-01
      -7048     1.51760E+01    -1.21994E+01     0.00000E+00    -5.37037E-01         -6.16155E-01
      -7047     1.51717E+01    -1.21977E+01     0.00000E+00     5.55983E-01         -2.28309E-02
      -7046     1.51674E+01    -1.21960E+01     0.00000E+00    -5.62211E-01         -7.47056E-01
      -7045     1.51631E+01    -1.21942E+01     0.00000E+00     2.63083E-01         -3.60585E-01
      -7044     1.51588E+01    -1.21925E+01     0.00000E+00    -5.60878E-01         -2.66793E-01
      -7043     1.51545E+01    -1.21908E+01     0.00000E+00    -1.53855E-01         -1.49840E-01
      -7042     1.51502E+01    -1.21890E+01     0.00000E+00    -2.32382E-01         -5.41526E-01
      -7041     1.51459E+01    -1.21873E+01     0.00000E+00     2.81284E-01          1.07193E+00
      -7040     1.51416E+01    -1.21856E+01     0.00000E+00     6.97108E-01          2.89635E-02
      -7039     1.51373E+01    -1.21838E+01     0.00000E+00     7.90830E-01          1.31958E+00
      -7038     1.51330E+01    -1.21821E+01     0.00000E+00     1.47914E-01         -7.65582E-01
      -7037     1.51287E+01    -1.21804E+01     0.00000E+00     7.30217E-02          9.49453E-02
      -7036     1.51244E+01    -1.21786E+01     0.00000E+00    -8.83586E-02         -4.15006E-01
      -7035     1.51201E+01    -1.21769E+01     0.00000E+00     1.54554E-01         -2.61706E-01
      -7034     1.51158E+01    -1.21752E+01     0.00000E+00    -1.65747E-01         -2.50087E-01
      -7033     1.51115E+01    -1.21735E+01     0.00000E+00     5.20806E-01         -7.97318E-01
      -7032     1.51072E+01    -1.21717E+01     0.00000E+00     1.51542E+00          3.53837E-01
      -7031     1.51029E+01    -1.21700E+01     0.00000E+00    -1.39929E+00          5.13441E-01
      -7030     1.50986E+01    -1.21683E+01     0.00000E+00     3.15350E-01         -1.00335E-01
      -7029     1.50943E+01    -1.21665E+01     0.00000E+00    -2.51254E-01         -4.76816E-01
      -7028     1.50900E+01    -1.21648E+01     0.00000E+00     3.53644E-01         -1.34689E-01
      -7027     1.50857E+01    -1.21631E+01     0.00000E+00     1.36966E-01         -1.45042E-02
      -7026     1.50814E+01    -1.21613E+01     0.00000E+00     1.78252E-01          4.07021E-01
      -7025     1.50771E+01    -1.21596E+01     0.00000E+00     2.84649E-01         -8.09923E-01
      -7024     1.50728E+01    -1.21579E+01     0.00000E+00     1.00969E+00          7.28440E-01
      -7023     1.50685E+01    -1.21561E+01     0.00000E+00     9.73157E-01         -5.56297E-01
      -7022     1.50642E+01    -1.21544E+01     0.00000E+00     4.30883E-01          1.45135E+00
      -7021     1.50600E+01    -1.21527E+01     0.00000E+00    -8.31842E-01          5.59620E-02
      -7020     1.50557E+01    -1.21510E+01     0.00000E+00    -7.19807E-01          1.33327E+00
      -7019     1.50514E+01    -1.21492E+01     0.00000E+00     9.32170E-01          3.00392E-01
      -7018     1.50471E+01    -1.21475E+01     0.00000E+00    -4.22828E-02          3.71794E-02
      -7017     1.50428E+01    -1.21458E+01     0.00000E+00     3.51107E-01          1.20743E-01
      -7016     1.50385E+01    -1.21440E+01     0.00000E+00     3.05053E-01          2.68657E-01
      -7015     1.50342E+01    -1.21423E+01     0.00000E+00    -1.37105E+00          1.05830E+00
      -7014     1.50299E+01    -1.21406E+01     0.00000E+00    -4.54822E-01          1.74520E+00
      -7013     1.50257E+01    -1.21388E+01     0.00000E+00     4.39775E-01          6.27204E-01
      -7012     1.50214E+01    -1.21371E+01     0.00000E+00     4.20282E-01         -8.41121E-01
      -7011     1.50171E+01    -1.21354E+01     0.00000E+00     6.24248E-01         -2.45774E-02
      -7010     1.50128E+01    -1.21336E+01     0.00000E+00     3.40881E-01          5.67665E-01
      -7009     1.50085E+01    -1.21319E+01     0.00000E+00     4.40169E-01          1.16825E-01
      -7008     1.50042E+01    -1.21302E+01     0.00000E+00    -5.46810E-02          6.71716E-01
      -7007     1.50000E+01    -1.21285E+01     0.00000E+00     8.27133E-01          6.97625E-01
      -7006     1.49957E+01    -1.21267E+01     0.00000E+00     5.34794E-01         -8.88456E-01
      -7005     1.49914E+01    -1.21250E+01     0.00000E+00     3.16530E-01         -4.77896E-01
      -7004     1.49871E+01    -1.21233E+01     0.00000E+00    -6.23814E-01         -4.45524E-02
      -7003     1.49828E+01    -1.21215E+01     0.00000E+00     2.85156E-01         -6.00842E-01
      -7002     1.49786E+01    -1.21198E+01     0.00000E+00    -7.18831E-01         -6.86388E-01
      -7001     1.49743E+01    -1.21181E+01     0.00000E+00     5.95540E-01         -5.17401E-01
      -7000     1.49700E+01    -1.21163E+01     0.00000E+00    -1.45941E+00          5.05394E-02
      -6999     1.49657E+01    -1.21146E+01     0.00000E+00     9.93148E-01          1.07898E-01
      -6998     1.49615E+01    -1.21129E+01     0.00000E+00    -1.63486E+00          4.65962E-01
      -6997     1.49572E+01    -1.21111E+01     0.00000E+00    -1.73259E-01         -1.00574E-01
      -6996     1.49529E+01    -1.21094E+01     0.00000E+00    -7.18110E-01         -6.35434E-01
      -6995     1.49486E+01    -1.21077E+01     0.00000E+00    -2.99000E-01         -1.13701E+00
      -6994     1.49444E+01    -1.21060E+01     0.00000E+00     9.03263E-01          4.88486E-01
      -6993     1.49401E+01    -1.21042E+01     0.00000E+00     7.40759E-01          1.66659E-02
      -6992     1.49358E+01    -1.21025E+01     0.00000E+00    -9.45002E-03          1.43650E-01
      -6991     1.49315E+01    -1.21008E+01     0.00000E+00     2.86906E-01          7.55597E-01
      -6990     1.49273E+01    -1.20990E+01     0.00000E+00     1.44441E-01         -5.02055E-01
      -6989     1.49230E+01    -1.20973E+01     0.00000E+00     1.88261E+00         -6.09836E-01
[...]
       7058     1.52191E+01     1.22167E+01     0.00000E+00    -3.39358E-01         -5.82403E-01
       7059     1.52234E+01     1.22185E+01     0.00000E+00     1.06573E+00          1.21972E+00
       7060     1.52277E+01     1.22202E+01     0.00000E+00    -9.72530E-01          1.09302E+00
       7061     1.52320E+01     1.22219E+01     0.00000E+00     1.99119E-01          9.85815E-01
       7062     1.52364E+01     1.22237E+01     0.00000E+00    -5.47281E-03          8.25080E-01
       7063     1.52407E+01     1.22254E+01     0.00000E+00     3.39137E-01          2.73205E-01
       7064     1.52450E+01     1.22271E+01     0.00000E+00     1.90608E-01          1.00149E+00
       7065     1.52493E+01     1.22288E+01     0.00000E+00    -9.02789E-01          3.39077E-01
       7066     1.52536E+01     1.22306E+01     0.00000E+00    -2.72147E-01         -4.62625E-02
       7067     1.52579E+01     1.22323E+01     0.00000E+00    -5.42564E-01         -5.11128E-01
       7068     1.52623E+01     1.22340E+01     0.00000E+00    -1.04178E-02          4.66287E-01
       7069     1.52666E+01     1.22358E+01     0.00000E+00    -1.00487E-01          3.07438E-01
       7070     1.52709E+01     1.22375E+01     0.00000E+00     2.77122E-01          5.82919E-01
       7071     1.52752E+01     1.22392E+01     0.00000E+00    -1.68803E-01          8.46771E-01
       7072     1.52795E+01     1.22410E+01     0.00000E+00     4.72828E-01         -1.11792E-01
       7073     1.52839E+01     1.22427E+01     0.00000E+00     2.82344E-01          1.88114E-01
       7074     1.52882E+01     1.22444E+01     0.00000E+00    -9.09617E-01         -3.72199E-01
       7075     1.52925E+01     1.22462E+01     0.00000E+00     2.01699E-01         -2.48152E-01
       7076     1.52968E+01     1.22479E+01     0.00000E+00    -1.71642E+00         -3.77695E-01
       7077     1.53012E+01     1.22496E+01     0.00000E+00    -8.63436E-01         -7.71398E-01
       7078     1.53055E+01     1.22513E+01     0.00000E+00    -1.68875E-01          8.32445E-02
       7079     1.53098E+01     1.22531E+01     0.00000E+00     7.28708E-02          1.02090E+00
       7080     1.53141E+01     1.22548E+01     0.00000E+00    -6.27062E-02          3.28261E-01
       7081     1.53185E+01     1.22565E+01     0.00000E+00    -3.98625E-01          7.37579E-01
       7082     1.53228E+01     1.22583E+01     0.00000E+00     4.29504E-01          3.81851E-01
       7083     1.53271E+01     1.22600E+01     0.00000E+00    -5.49405E-01          5.52509E-01
       7084     1.53314E+01     1.22617E+01     0.00000E+00    -4.35613E-01         -4.09223E-01
       7085     1.53358E+01     1.22635E+01     0.00000E+00     1.54988E+00          6.31603E-01
       7086     1.53401E+01     1.22652E+01     0.00000E+00     2.91594E-01          2.62124E-01
       7087     1.53444E+01     1.22669E+01     0.00000E+00     6.29438E-01          1.79759E-01
       7088     1.53488E+01     1.22687E+01     0.00000E+00    -6.13196E-01         -2.32399E-01
       7089     1.53531E+01     1.22704E+01     0.00000E+00     3.94363E-01         -6.54144E-01
       7090     1.53574E+01     1.22721E+01     0.00000E+00     1.54383E-01          6.01531E-02
       7091     1.53618E+01     1.22738E+01     0.00000E+00    -6.97256E-01         -2.17347E-01
       7092     1.53661E+01     1.22756E+01     0.00000E+00    -1.05734E-01         -3.56615E-01
       7093     1.53704E+01     1.22773E+01     0.00000E+00    -4.55534E-01         -2.00727E-01
       7094     1.53748E+01     1.22790E+01     0.00000E+00     1.24983E-01          9.58830E-02
       7095     1.53791E+01     1.22808E+01     0.00000E+00     2.11075E-01          1.85231E-02
       7096     1.53834E+01     1.22825E+01     0.00000E+00     1.22661E+00          8.46443E-01
       7097     1.53878E+01     1.22842E+01     0.00000E+00     1.28326E-01          6.54829E-01
       7098     1.53921E+01     1.22860E+01     0.00000E+00     7.14603E-01          4.17387E-01
       7099     1.53964E+01     1.22877E+01     0.00000E+00     3.16541E-02         -4.01337E-01
       7100     1.54008E+01     1.22894E+01     0.00000E+00    -5.80703E-01          6.29158E-01
       7101     1.54051E+01     1.22912E+01     0.00000E+00    -2.71124E-01          6.10045E-02
       7102     1.54095E+01     1.22929E+01     0.00000E+00     4.37678E-01          4.50464E-01
       7103     1.54138E+01     1.22946E+01     0.00000E+00     9.66578E-01          2.44429E-01
       7104     1.54181E+01     1.22964E+01     0.00000E+00    -1.62268E-01          3.08033E-01
       7105     1.54225E+01     1.22981E+01     0.00000E+00     8.66533E-02          3.40869E-01
       7106     1.54268E+01     1.22998E+01     0.00000E+00    -3.08846E-01          4.54405E-01
       7107     1.54312E+01     1.23015E+01     0.00000E+00    -2.26526E-01         -1.20974E-02
       7108     1.54355E+01     1.23033E+01     0.00000E+00     5.08889E-01         -7.30639E-01
       7109     1.54398E+01     1.23050E+01     0.00000E+00    -6.90928E-02          4.32703E-02
       7110     1.54442E+01     1.23067E+01     0.00000E+00    -5.57639E-01         -3.87221E-01
       7111     1.54485E+01     1.23085E+01     0.00000E+00    -7.26276E-01         -1.14348E-04
       7112     1.54529E+01     1.23102E+01     0.00000E+00     3.91290E-01         -8.74663E-01
       7113     1.54572E+01     1.23119E+01     0.00000E+00     2.20720E-01          4.45201E-01
       7114     1.54616E+01     1.23137E+01     0.00000E+00     2.52118E-01          4.53455E-01
       7115     1.54659E+01     1.23154E+01     0.00000E+00    -6.71553E-01         -6.99781E-01
       7116     1.54703E+01     1.23171E+01     0.00000E+00    -9.57501E-01         -5.79969E-02
       7117     1.54746E+01     1.23189E+01     0.00000E+00     7.94951E-01          9.38990E-01
       7118     1.54790E+01     1.23206E+01     0.00000E+00    -6.22317E-01         -1.02654E+00
       7119     1.54833E+01     1.23223E+01     0.00000E+00     1.47218E-02          1.29992E+00
       7120     1.54877E+01     1.23240E+01     0.00000E+00     5.83660E-01          4.94745E-02
       7121     1.54920E+01     1.23258E+01     0.00000E+00    -4.24340E-01          1.90529E-01
       7122     1.54964E+01     1.23275E+01     0.00000E+00     4.01382E-01         -2.20451E-01
       7123     1.55007E+01     1.23292E+01     0.00000E+00    -6.89494E-02          8.09657E-01
       7124     1.55051E+01     1.23310E+01     0.00000E+00    -1.28400E-01         -1.67573E-01
       7125     1.55094E+01     1.23327E+01     0.00000E+00     2.38059E-01         -2.11955E-02
       7126     1.55138E+01     1.23344E+01     0.00000E+00    -4.90236E-01         -3.54684E-02
       7127     1.55181E+01     1.23362E+01     0.00000E+00     1.00041E+00          1.23076E-01
       7128     1.55225E+01     1.23379E+01     0.00000E+00     3.54171E-01         -7.07242E-01
       7129     1.55268E+01     1.23396E+01     0.00000E+00    -9.72589E-01         -6.58810E-01
       7130     1.55312E+01     1.23414E+01     0.00000E+00    -3.22434E-01         -1.04161E+00
       7131     1.55356E+01     1.23431E+01     0.00000E+00    -3.34576E-01         -1.98176E-01
       7132     1.55399E+01     1.23448E+01     0.00000E+00     1.23806E+00          2.75166E-01
       7133     1.55443E+01     1.23465E+01     0.00000E+00     1.67605E-01         -1.43299E-01
       7134     1.55486E+01     1.23483E+01     0.00000E+00    -5.80845E-01         -1.92693E-01
       7135     1.55530E+01     1.23500E+01     0.00000E+00     6.19877E-01         -2.94252E-01
       7136     1.55573E+01     1.23517E+01     0.00000E+00     7.67289E-01          1.08275E+00
       7137     1.55617E+01     1.23535E+01     0.00000E+00    -4.40333E-01          6.36030E-01
       7138     1.55661E+01     1.23552E+01     0.00000E+00    -7.96248E-01          7.18308E-01
       7139     1.55704E+01     1.23569E+01     0.00000E+00     3.82702E-01          2.38496E-01
       7140     1.55748E+01     1.23587E+01     0.00000E+00     4.78238E-01          5.51821E-01
       7141     1.55792E+01     1.23604E+01     0.00000E+00     1.23693E+00          1.19418E-01
       7142     1.55835E+01     1.23621E+01     0.00000E+00     4.16701E-01          1.17385E+00
       7143     1.55879E+01     1.23639E+01     0.00000E+00    -7.57716E-01         -7.78141E-01
       7144     1.55922E+01     1.23656E+01     0.00000E+00    -9.16791E-01          2.19465E-01
       7145     1.55966E+01     1.23673E+01     0.00000E+00     7.72171E-01          1.18474E+00
       7146     1.56010E+01     1.23690E+01     0.00000E+00    -3.71271E-01         -4.41984E-01
       7147     1.56053E+01     1.23708E+01     0.00000E+00     8.85077E-01          6.26505E-01
       7148     1.56097E+01     1.23725E+01     0.00000E+00     7.86509E-02         -5.58723E-01
       7149     1.56141E+01     1.23742E+01     0.00000E+00    -9.77403E-01          7.08305E-01
       7150     1.56185E+01     1.23760E+01     0.00000E+00    -7.24119E-02         -6.09643E-01
       7151     1.56228E+01     1.23777E+01     0.00000E+00    -4.51195E-01          1.61026E-01
       7152     1.56272E+01     1.23794E+01     0.00000E+00    -3.77161E-01         -2.90361E-01
       7153     1.56316E+01     1.23812E+01     0.00000E+00     1.29273E+00         -5.65520E-01
       7154     1.56359E+01     1.23829E+01     0.00000E+00     3.24967E-01          1.27234E+00
       7155     1.56403E+01     1.23846E+01     0.00000E+00     2.10394E-01         -7.47663E-01
       7156     1.56447E+01     1.23864E+01     0.00000E+00     4.61273E-01          4.44545E-01
       7157     1.56490E+01     1.23881E+01     0.00000E+00    -5.95561E-02         -8.49171E-01
       7158     1.56534E+01     1.23898E+01     0.00000E+00     1.07844E-01         -1.08457E-01
       7159     1.56578E+01     1.23916E+01     0.00000E+00    -8.49230E-01         -2.25885E-01
       7160     1.56622E+01     1.23933E+01     0.00000E+00    -5.58023E-01          5.78225E-01
       7161     1.56665E+01     1.23950E+01     0.00000E+00    -6.31198E-01          3.90279E-01
       7162     1.56709E+01     1.23967E+01     0.00000E+00     1.65366E-02          1.02237E+00
       7163     1.56753E+01     1.23985E+01     0.00000E+00     4.62176E-01          6.02389E-01
       7164     1.56797E+01     1.24002E+01     0.00000E+00     1.43515E-01         -8.87605E-01
       7165     1.56841E+01     1.24019E+01     0.00000E+00    -1.17653E+00         -2.46228E-01
       7166     1.56884E+01     1.24037E+01     0.00000E+00     1.11184E+00         -1.75036E+00
       7167     1.56928E+01     1.24054E+01     0.00000E+00     3.38313E-02         -4.80306E-02
       7168     1.56972E+01     1.24071E+01     0.00000E+00    -1.02358E+00         -3.62390E-01
       7169     1.57016E+01     1.24089E+01     0.00000E+00    -1.01554E+00         -1.29990E-01
       7170     1.57059E+01     1.24106E+01     0.00000E+00    -1.84450E-01         -7.57857E-02
       7171     1.57103E+01     1.24123E+01     0.00000E+00    -3.95524E-01         -7.48191E-01
       7172     1.57147E+01     1.24141E+01     0.00000E+00     1.58567E-01         -8.85222E-01
       7173     1.57191E+01     1.24158E+01     0.00000E+00    -1.15931E+00          8.21406E-01
       7174     1.57235E+01     1.24175E+01     0.00000E+00    -3.98583E-01         -1.01737E-02
       7175     1.57279E+01     1.24192E+01     0.00000E+00    -1.68688E-01         -8.26738E-01
       7176     1.57322E+01     1.24210E+01     0.00000E+00     9.84040E-01         -5.57471E-01
       7177     1.57366E+01     1.24227E+01     0.00000E+00     2.59496E-01         -5.44378E-01
       7178     1.57410E+01     1.24244E+01     0.00000E+00     6.25619E-01          1.17998E+00
       7179     1.57454E+01     1.24262E+01     0.00000E+00     1.14143E+00          6.62573E-01
       7180     1.57498E+01     1.24279E+01     0.00000E+00    -5.95811E-01          5.03202E-01
       7181     1.57542E+01     1.24296E+01     0.00000E+00    -2.78190E-01          7.10241E-01
       7182     1.57586E+01     1.24314E+01     0.00000E+00     4.57315E-02          9.80600E-01
       7183     1.57630E+01     1.24331E+01     0.00000E+00    -7.70365E-01          1.09215E-01
       7184     1.57673E+01     1.24348E+01     0.00000E+00     3.29474E-02         -7.93885E-01
       7185     1.57717E+01     1.24366E+01     0.00000E+00     8.48710E-01         -1.64859E-01
       7186     1.57761E+01     1.24383E+01     0.00000E+00     4.65639E-01          1.28106E+00
       7187     1.57805E+01     1.24400E+01     0.00000E+00     5.99282E-01          6.10337E-02
       7188     1.57849E+01     1.24417E+01     0.00000E+00     1.09561E-01          2.92216E-02
       7189     1.57893E+01     1.24435E+01     0.00000E+00    -1.62698E-01          1.31066E+00
       7190     1.57937E+01     1.24452E+01     0.00000E+00    -3.93641E-01         -7.46328E-01
       7191     1.57981E+01     1.24469E+01     0.00000E+00    -3.90479E-01          7.02604E-01
       7192     1.58025E+01     1.24487E+01     0.00000E+00     1.62149E-01          8.58056E-02
       7193     1.58069E+01     1.24504E+01     0.00000E+00    -2.67259E-01         -4.74604E-02
       7194     1.58113E+01     1.24521E+01     0.00000E+00     1.29657E-01          8.24940E-01
       7195     1.58157E+01     1.24539E+01     0.00000E+00     4.12059E-01          8.77052E-01
       7196     1.58201E+01     1.24556E+01     0.00000E+00    -8.02095E-02          1.11103E+00
       7197     1.58245E+01     1.24573E+01     0.00000E+00     1.43085E+00         -7.29490E-02
       7198     1.58289E+01     1.24591E+01     0.00000E+00     4.81550E-01         -7.70988E-01
       7199     1.58333E+01     1.24608E+01     0.00000E+00    -2.67312E-01          6.18117E-01
       7200     1.58377E+01     1.24625E+01     0.00000E+00     4.49198E-01          3.36855E-01
       7201     1.58421E+01     1.24642E+01     0.00000E+00    -4.81775E-01          9.30028E-02
       7202     1.58465E+01     1.24660E+01     0.00000E+00     1.99669E-02          5.00102E-01
       7203     1.58509E+01     1.24677E+01     0.00000E+00    -1.48850E-01          1.08687E-01
       7204     1.58553E+01     1.24694E+01     0.00000E+00     1.69689E-01         -2.75104E-01
       7205     1.58597E+01     1.24712E+01     0.00000E+00     8.56076E-01         -2.06175E-01
       7206     1.58641E+01     1.24729E+01     0.00000E+00    -9.03458E-01          2.72633E-01
       7207     1.58685E+01     1.24746E+01     0.00000E+00     1.35610E+00         -2.48957E-01
       7208     1.58729E+01     1.24764E+01     0.00000E+00    -1.36912E-02         -3.37154E-01
       7209     1.58773E+01     1.24781E+01     0.00000E+00    -3.31445E-01         -7.47446E-01
       7210     1.58817E+01     1.24798E+01     0.00000E+00    -8.49053E-01         -1.55830E+00
       7211     1.58861E+01     1.24816E+01     0.00000E+00     5.27226E-01          2.47341E-01
       7212     1.58905E+01     1.24833E+01     0.00000E+00    -2.94743E-01         -5.98216E-01
       7213     1.58949E+01     1.24850E+01     0.00000E+00     7.21685E-01          1.20227E-01
       7214     1.58993E+01     1.24867E+01     0.00000E+00     1.04663E-01          7.71698E-01
       7215     1.59037E+01     1.24885E+01     0.00000E+00     6.45957E-01          1.31902E-02
       7216     1.59081E+01     1.24902E+01     0.00000E+00     7.14067E-02         -1.10796E-01
       7217     1.59125E+01     1.24919E+01     0.00000E+00    -9.32991E-01          5.55140E-01
       7218     1.59169E+01     1.24937E+01     0.00000E+00    -1.57893E+00          3.91028E-01
       7219     1.59214E+01     1.24954E+01     0.00000E+00    -9.20028E-01         -2.10132E-01
       7220     1.59258E+01     1.24971E+01     0.00000E+00     4.94389E-02          9.98854E-02
       7221     1.59302E+01     1.24989E+01     0.00000E+00    -8.56964E-01         -2.91790E-01
       7222     1.59346E+01     1.25006E+01     0.00000E+00     6.05033E-01         -1.12061E+00
       7223     1.59390E+01     1.25023E+01     0.00000E+00    -4.47811E-01         -5.50178E-03
       7224     1.59434E+01     1.25041E+01     0.00000E+00    -4.55565E-01         -7.16788E-02
       7225     1.59478E+01     1.25058E+01     0.00000E+00    -3.48909E-01          9.80721E-01
       7226     1.59522E+01     1.25075E+01     0.00000E+00    -2.80077E-01         -3.66529E-01
       7227     1.59567E+01     1.25093E+01     0.00000E+00    -1.99698E-01         -6.39453E-01
       7228     1.59611E+01     1.25110E+01     0.00000E+00     6.93020E-01         -7.43026E-01
       7229     1.59655E+01     1.25127E+01     0.00000E+00     6.43383E-01          1.13859E-01
       7230     1.59699E+01     1.25144E+01     0.00000E+00     1.61167E-01         -1.54541E-01
       7231     1.59743E+01     1.25162E+01     0.00000E+00     1.57107E+00          2.52672E-01
       7232     1.59787E+01     1.25179E+01     0.00000E+00    -1.06523E-01          2.88236E-02
       7233     1.59832E+01     1.25196E+01     0.00000E+00     6.72678E-01          3.57498E-01
       7234     1.59876E+01     1.25214E+01     0.00000E+00     8.18515E-01         -9.96565E-02
       7235     1.59920E+01     1.25231E+01     0.00000E+00    -1.73339E-01          4.89776E-02
       7236     1.59964E+01     1.25248E+01     0.00000E+00     5.31545E-01         -1.00528E-02
       7237     1.60008E+01     1.25266E+01     0.00000E+00     1.10290E-01         -5.00759E-01
       7238     1.60053E+01     1.25283E+01     0.00000E+00     1.47115E+00         -7.70085E-01
       7239     1.60097E+01     1.25300E+01     0.00000E+00    -6.22332E-01         -8.64708E-02
       7240     1.60141E+01     1.25318E+01     0.00000E+00    -1.33981E+00          1.19032E+00
       7241     1.60185E+01     1.25335E+01     0.00000E+00     8.61359E-01          3.76489E-01
       7242     1.60230E+01     1.25352E+01     0.00000E+00     2.48755E-01         -3.26861E-01
       7243     1.60274E+01     1.25369E+01     0.00000E+00     2.58692E-01         -3.74370E-01
       7244     1.60318E+01     1.25387E+01     0.00000E+00     7.20178E-01         -1.29711E-01
       7245     1.60362E+01     1.25404E+01     0.00000E+00    -6.50118E-01          3.06150E-01
       7246     1.60407E+01     1.25421E+01     0.00000E+00     1.09700E+00          7.90977E-01
       7247     1.60451E+01     1.25439E+01     0.00000E+00     6.96528E-02         -8.62519E-01
       7248     1.60495E+01     1.25456E+01     0.00000E+00    -9.58122E-01          2.14466E-01
       7249     1.60540E+01     1.25473E+01     0.00000E+00     7.04767E-02         -3.67463E-01
       7250     1.60584E+01     1.25491E+01     0.00000E+00    -9.80468E-02          7.54175E-01
       7251     1.60628E+01     1.25508E+01     0.00000E+00     6.30852E-01          7.19848E-01
       7252     1.60672E+01     1.25525E+01     0.00000E+00    -1.26531E-01          3.09413E-01
       7253     1.60717E+01     1.25543E+01     0.00000E+00    -6.30489E-01         -6.98803E-01
       7254     1.60761E+01     1.25560E+01     0.00000E+00     1.06769E+00         -2.57661E-01
       7255     1.60805E+01     1.25577E+01     0.00000E+00     5.29497E-01          1.26743E-01
       7256     1.60850E+01     1.25594E+01     0.00000E+00     4.21315E-01          1.43379E-01
       7257     1.60894E+01     1.25612E+01     0.00000E+00     4.08066E-01         -5.04414E-01
       7258     1.60938E+01     1.25629E+01     0.00000E+00    -3.56541E-01          9.94530E-01
       7259     1.60983E+01     1.25646E+01     0.00000E+00    -2.38681E-01          3.74771E-01
       7260     1.61027E+01     1.25664E+01     0.00000E+00     0.00000E+00          0.00000E+00

This summary file was closed on 02-Jul-2014 at 13:26:49.

