
These predictions were generated by FAST (v7.00.02a-bjj, 26-Jan-2012)-Compiled as S-Function for Simulink on 26-Jan-2012 at 20:30:24.
The aerodynamic calculations were made by AeroDyn (v13.00.01a-bjj, 30-Jan-2012).

 FAST certification Test #12: WindPACT 1.5 MW Baseline with many DOFs with VS and VP and ECD wind.

    Time	HorWindV	HorWndDir	OoPDefl3	IPDefl3	TipALxb3	TipALyb3	Spn4ALxb1	Spn4ALyb1	BldPitch3	RotAccel	LSSGagA	HSShftA	NacYawErr	RootFxb3	RootFyb3	RootMEdg3	RootMFlp3	LSShftFya	LSShftFza	YawBrFxp	YawBrFyp	TwrBsFxt	TwrBsFyt
   (sec)	(m/sec)	(deg)	(m)	(m)	(m/sec^2)	(m/sec^2)	(m/sec^2)	(m/sec^2)	(deg)	(deg/sec2)	(deg/sec2)	(deg/sec2)	(deg)	(kN)	(kN)	(kN·m)	(kN·m)	(kN)	(kN)	(kN)	(kN)	(kN)	(kN)
   5.043	 1.180E+01	 0.000E+00	 1.467E+00	-2.350E-01	 6.501E+01	-6.010E+00	 9.401E+00	 9.447E-01	 2.600E+00	-1.251E+01	-8.439E+00	-7.424E+02	 0.000E+00	 5.944E+01	-2.804E+01	 3.313E+02	 1.109E+03	 2.661E+02	-2.040E+01	 1.060E+02	 1.960E+00	 8.163E+01	 7.883E+00
   5.115	 1.180E+01	 0.000E+00	 1.668E+00	-2.787E-01	 1.885E+01	 9.644E+00	 1.234E+01	-2.263E-02	 2.600E+00	 1.111E+01	 1.296E+01	 1.140E+03	 0.000E+00	 6.082E+01	-2.070E+01	 3.164E+02	 1.192E+03	 2.603E+02	-6.021E+01	 1.114E+02	 9.328E+00	 8.662E+01	-1.912E+00
   5.188	 1.180E+01	 0.000E+00	 1.895E+00	-2.575E-01	 2.182E+01	 3.256E+00	 4.114E+00	-1.285E-01	 2.600E+00	 5.200E+00	 5.530E+00	 4.864E+02	 0.000E+00	 7.926E+01	-1.464E+01	 2.106E+02	 1.502E+03	 2.496E+02	-1.047E+02	 1.253E+02	 1.992E+00	 9.377E+01	 7.470E+00
   5.263	 1.180E+01	 0.000E+00	 2.130E+00	-2.100E-01	 1.871E+01	-5.869E+00	 1.191E+00	-1.535E-01	 2.600E+00	-7.175E+00	-7.515E+00	-6.610E+02	 0.000E+00	 9.151E+01	-8.409E+00	 8.989E+01	 1.729E+03	 2.273E+02	-1.464E+02	 1.474E+02	-4.940E+00	 9.518E+01	 1.245E+01
   5.335	 1.180E+01	 0.000E+00	 2.319E+00	-2.147E-01	 3.743E-01	-6.042E-01	 6.023E+00	-6.736E-01	 2.600E+00	 6.778E-01	 7.079E-01	 6.227E+01	 0.000E+00	 8.801E+01	-1.439E+00	 4.149E+01	 1.727E+03	 2.001E+02	-1.767E+02	 1.672E+02	 1.962E+00	 1.070E+02	-4.107E+00
   5.410	 1.180E+01	 0.000E+00	 2.375E+00	-2.206E-01	 7.785E+00	 2.979E+00	 7.206E+00	-1.078E+00	 2.600E+00	 9.254E+00	 9.547E+00	 8.398E+02	 0.000E+00	 8.565E+01	 5.501E+00	-5.671E+00	 1.702E+03	 1.688E+02	-2.065E+02	 1.828E+02	 5.244E+00	 1.466E+02	-1.208E+01
   5.483	 1.180E+01	 0.000E+00	 2.324E+00	-1.826E-01	 2.771E+01	-2.501E+00	 5.932E+00	-8.797E-01	 2.600E+00	 4.023E+00	 3.983E+00	 3.504E+02	 0.000E+00	 8.743E+01	 1.101E+01	-8.871E+01	 1.707E+03	 1.309E+02	-2.332E+02	 2.014E+02	-3.995E+00	 1.915E+02	 2.067E+00
   5.558	 1.180E+01	 0.000E+00	 2.262E+00	-1.428E-01	 3.093E+01	-5.003E+00	 7.200E+00	-6.362E-01	 2.600E+00	 9.637E-02	-4.351E-02	-3.828E+00	 0.000E+00	 8.498E+01	 1.596E+01	-1.595E+02	 1.656E+03	 8.721E+01	-2.495E+02	 2.296E+02	-9.403E+00	 2.218E+02	 8.191E+00
   5.630	 1.180E+01	 0.000E+00	 2.214E+00	-1.308E-01	 2.749E+01	-1.398E+00	 7.639E+00	-7.429E-01	 2.600E+00	 3.972E+00	 4.035E+00	 3.550E+02	 0.000E+00	 8.096E+01	 2.038E+01	-1.940E+02	 1.588E+03	 4.702E+01	-2.561E+02	 2.595E+02	-3.727E+00	 2.450E+02	-6.731E+00
   5.703	 1.180E+01	 0.000E+00	 2.167E+00	-1.181E-01	 3.162E+01	-2.753E-01	 5.707E+00	-8.488E-01	 2.600E+00	 4.507E+00	 4.593E+00	 4.040E+02	 0.000E+00	 8.108E+01	 2.381E+01	-2.291E+02	 1.574E+03	 6.294E+00	-2.589E+02	 2.850E+02	-4.369E-01	 2.794E+02	-1.725E+01
   5.778	 1.180E+01	 0.000E+00	 2.140E+00	-9.572E-02	 3.448E+01	-2.311E+00	 4.632E+00	-7.795E-01	 2.600E+00	 6.168E-01	 5.421E-01	 4.769E+01	 0.000E+00	 8.322E+01	 2.607E+01	-2.689E+02	 1.594E+03	-3.888E+01	-2.559E+02	 3.072E+02	-5.856E+00	 3.219E+02	-9.155E+00
   5.850	 1.180E+01	 0.000E+00	 2.151E+00	-8.740E-02	 2.997E+01	-1.665E+00	 4.884E+00	-8.178E-01	 2.600E+00	 1.225E+00	 1.170E+00	 1.029E+02	 0.000E+00	 8.398E+01	 2.762E+01	-2.869E+02	 1.605E+03	-8.112E+01	-2.446E+02	 3.289E+02	-1.011E+01	 3.538E+02	-4.430E-01
   5.925	 1.180E+01	 0.000E+00	 2.180E+00	-9.175E-02	 2.669E+01	 2.607E-01	 4.219E+00	-9.978E-01	 2.600E+00	 4.430E+00	 4.502E+00	 3.960E+02	 0.000E+00	 8.534E+01	 2.870E+01	-2.911E+02	 1.628E+03	-1.200E+02	-2.261E+02	 3.522E+02	-7.855E+00	 3.732E+02	-4.616E+00
   5.998	 1.180E+01	 0.000E+00	 2.211E+00	-9.095E-02	 2.752E+01	-8.017E-01	 3.212E+00	-1.089E+00	 2.600E+00	 3.342E+00	 3.368E+00	 2.963E+02	 0.000E+00	 8.836E+01	 2.870E+01	-2.974E+02	 1.672E+03	-1.542E+02	-2.033E+02	 3.712E+02	-4.690E+00	 3.880E+02	-1.228E+01
   6.068	 1.180E+01	-1.013E-02	 2.246E+00	-9.012E-02	 2.746E+01	-2.634E+00	 3.287E+00	-1.113E+00	 2.600E+00	 1.069E+00	 1.006E+00	 8.847E+01	-1.013E-02	 9.114E+01	 2.754E+01	-2.939E+02	 1.715E+03	-1.847E+02	-1.767E+02	 3.828E+02	-4.692E+00	 4.049E+02	-1.234E+01
   6.140	 1.181E+01	-3.300E-02	 2.290E+00	-1.035E-01	 2.585E+01	-2.176E+00	 3.920E+00	-1.220E+00	 2.600E+00	 2.435E+00	 2.418E+00	 2.127E+02	-3.300E-02	 9.305E+01	 2.528E+01	-2.642E+02	 1.749E+03	-2.120E+02	-1.441E+02	 3.892E+02	-6.165E+00	 4.213E+02	-6.174E+00
   6.215	 1.182E+01	-7.125E-02	 2.334E+00	-1.278E-01	 2.546E+01	-9.322E-01	 4.191E+00	-1.386E+00	 2.600E+00	 4.878E+00	 4.913E+00	 4.322E+02	-7.125E-02	 9.509E+01	 2.182E+01	-2.150E+02	 1.785E+03	-2.335E+02	-1.060E+02	 3.933E+02	-6.482E+00	 4.279E+02	-1.337E+00
   6.288	 1.183E+01	-1.256E-01	 2.373E+00	-1.497E-01	 2.637E+01	-1.355E+00	 4.373E+00	-1.490E+00	 2.600E+00	 4.145E+00	 4.162E+00	 3.661E+02	-1.256E-01	 9.755E+01	 1.744E+01	-1.638E+02	 1.825E+03	-2.472E+02	-6.635E+01	 3.952E+02	-4.819E+00	 4.227E+02	-2.340E+00
   6.360	 1.185E+01	-1.986E-01	 2.414E+00	-1.721E-01	 2.709E+01	-2.159E+00	 4.931E+00	-1.547E+00	 2.600E+00	 2.677E+00	 2.623E+00	 2.307E+02	-1.986E-01	 9.981E+01	 1.243E+01	-1.070E+02	 1.864E+03	-2.548E+02	-2.546E+01	 3.923E+02	-2.108E+00	 4.131E+02	-5.783E+00
   6.435	 1.187E+01	-2.883E-01	 2.460E+00	-2.016E-01	 2.721E+01	-1.990E+00	 5.623E+00	-1.566E+00	 2.600E+00	 3.401E+00	 3.384E+00	 2.977E+02	-2.883E-01	 1.014E+02	 6.790E+00	-3.722E+01	 1.897E+03	-2.567E+02	 1.798E+01	 3.827E+02	-4.968E-01	 4.039E+02	-5.068E+00
   6.508	 1.190E+01	-3.883E-01	 2.505E+00	-2.333E-01	 2.725E+01	-1.868E+00	 6.073E+00	-1.536E+00	 2.600E+00	 4.752E+00	 4.785E+00	 4.209E+02	-3.883E-01	 1.025E+02	 8.271E-01	 3.627E+01	 1.924E+03	-2.518E+02	 6.069E+01	 3.692E+02	-1.034E+00	 3.923E+02	 9.645E-01
   6.583	 1.193E+01	-5.113E-01	 2.546E+00	-2.650E-01	 2.782E+01	-2.424E+00	 6.358E+00	-1.491E+00	 2.600E+00	 4.860E+00	 4.873E+00	 4.286E+02	-5.113E-01	 1.032E+02	-5.820E+00	 1.144E+02	 1.947E+03	-2.386E+02	 1.034E+02	 3.538E+02	-1.246E+00	 3.713E+02	 5.623E+00
   6.655	 1.196E+01	-6.473E-01	 2.579E+00	-2.964E-01	 2.912E+01	-2.723E+00	 6.641E+00	-1.487E+00	 2.600E+00	 4.445E+00	 4.426E+00	 3.893E+02	-6.473E-01	 1.038E+02	-1.239E+01	 1.933E+02	 1.963E+03	-2.189E+02	 1.414E+02	 3.379E+02	 1.020E+00	 3.440E+02	 3.839E+00
   6.728	 1.200E+01	-7.963E-01	 2.603E+00	-3.291E-01	 3.017E+01	-2.484E+00	 6.929E+00	-1.514E+00	 2.600E+00	 4.480E+00	 4.477E+00	 3.938E+02	-7.963E-01	 1.038E+02	-1.896E+01	 2.745E+02	 1.973E+03	-1.934E+02	 1.760E+02	 3.191E+02	 3.792E+00	 3.166E+02	 7.397E-01
   6.803	 1.204E+01	-9.643E-01	 2.620E+00	-3.611E-01	 3.078E+01	-2.372E+00	 7.068E+00	-1.526E+00	 2.600E+00	 4.833E+00	 4.833E+00	 4.252E+02	-9.643E-01	 1.031E+02	-2.566E+01	 3.555E+02	 1.971E+03	-1.611E+02	 2.082E+02	 2.968E+02	 4.107E+00	 2.914E+02	 3.105E+00
   6.875	 1.208E+01	-1.148E+00	 2.625E+00	-3.877E-01	 3.128E+01	-2.492E+00	 7.017E+00	-1.519E+00	 2.600E+00	 5.203E+00	 5.207E+00	 4.580E+02	-1.148E+00	 1.019E+02	-3.174E+01	 4.269E+02	 1.960E+03	-1.241E+02	 2.340E+02	 2.751E+02	 2.790E+00	 2.666E+02	 8.552E+00
   6.950	 1.213E+01	-1.352E+00	 2.614E+00	-4.103E-01	 3.241E+01	-2.523E+00	 6.946E+00	-1.514E+00	 2.600E+00	 5.422E+00	 5.428E+00	 4.775E+02	-1.352E+00	 1.007E+02	-3.721E+01	 4.907E+02	 1.942E+03	-8.188E+01	 2.530E+02	 2.547E+02	 2.884E+00	 2.380E+02	 9.939E+00
   7.023	 1.218E+01	-1.563E+00	 2.591E+00	-4.265E-01	 3.361E+01	-2.589E+00	 6.968E+00	-1.501E+00	 2.600E+00	 5.155E+00	 5.149E+00	 4.530E+02	-1.563E+00	 9.947E+01	-4.157E+01	 5.402E+02	 1.921E+03	-3.879E+01	 2.637E+02	 2.369E+02	 4.625E+00	 2.107E+02	 6.374E+00
   7.098	 1.224E+01	-1.796E+00	 2.560E+00	-4.411E-01	 3.260E+01	-2.233E+00	 7.531E+00	-1.687E+00	 2.690E+00	 6.682E+00	 4.888E+00	 4.300E+02	-1.796E+00	 9.867E+01	-4.490E+01	 5.764E+02	 1.900E+03	 7.446E+00	 2.673E+02	 2.196E+02	 5.555E+00	 1.880E+02	 3.858E+00
   7.170	 1.230E+01	-2.041E+00	 2.521E+00	-4.514E-01	 3.203E+01	-2.457E+00	 6.739E+00	-1.470E+00	 2.850E+00	 5.491E+00	 4.945E+00	 4.350E+02	-2.041E+00	 9.651E+01	-4.726E+01	 5.979E+02	 1.866E+03	 5.323E+01	 2.629E+02	 2.040E+02	 4.172E+00	 1.720E+02	 6.032E+00
   7.243	 1.237E+01	-2.298E+00	 2.467E+00	-4.578E-01	 3.227E+01	-3.037E+00	 6.132E+00	-1.312E+00	 3.109E+00	 4.090E+00	 4.968E+00	 4.370E+02	-2.298E+00	 9.476E+01	-4.850E+01	 6.039E+02	 1.831E+03	 9.787E+01	 2.501E+02	 1.918E+02	 2.200E+00	 1.592E+02	 8.751E+00
   7.318	 1.243E+01	-2.578E+00	 2.400E+00	-4.589E-01	 3.206E+01	-2.907E+00	 5.920E+00	-1.181E+00	 3.361E+00	 3.123E+00	 4.941E+00	 4.347E+02	-2.578E+00	 9.266E+01	-4.845E+01	 5.983E+02	 1.785E+03	 1.403E+02	 2.288E+02	 1.833E+02	 2.009E+00	 1.480E+02	 6.454E+00
   7.390	 1.250E+01	-2.865E+00	 2.329E+00	-4.555E-01	 3.001E+01	-1.972E+00	 6.681E+00	-1.265E+00	 3.611E+00	 4.269E+00	 4.677E+00	 4.114E+02	-2.865E+00	 9.124E+01	-4.703E+01	 5.789E+02	 1.742E+03	 1.767E+02	 2.015E+02	 1.786E+02	 2.668E+00	 1.418E+02	 1.523E+00
   7.465	 1.258E+01	-3.178E+00	 2.256E+00	-4.445E-01	 2.985E+01	-1.430E+00	 7.646E+00	-1.369E+00	 3.865E+00	 5.653E+00	 3.431E+00	 3.018E+02	-3.178E+00	 9.009E+01	-4.429E+01	 5.422E+02	 1.701E+03	 2.095E+02	 1.667E+02	 1.762E+02	 1.416E+00	 1.421E+02	-5.515E-02
   7.538	 1.266E+01	-3.493E+00	 2.191E+00	-4.258E-01	 3.121E+01	-1.998E+00	 7.084E+00	-9.610E-01	 4.031E+00	 3.281E+00	 3.006E+00	 2.644E+02	-3.493E+00	 8.777E+01	-4.097E+01	 4.971E+02	 1.658E+03	 2.347E+02	 1.273E+02	 1.763E+02	-1.085E+00	 1.469E+02	 1.479E+00
   7.610	 1.274E+01	-3.822E+00	 2.136E+00	-4.082E-01	 3.027E+01	-1.765E+00	 6.911E+00	-7.136E-01	 4.282E+00	 2.675E+00	 3.661E+00	 3.221E+02	-3.822E+00	 8.626E+01	-3.645E+01	 4.410E+02	 1.624E+03	 2.522E+02	 8.429E+01	 1.802E+02	-2.621E+00	 1.536E+02	 1.142E+00
   7.685	 1.283E+01	-4.178E+00	 2.089E+00	-3.870E-01	 2.880E+01	-1.734E+00	 6.516E+00	-4.634E-01	 4.533E+00	 1.444E+00	 3.910E+00	 3.439E+02	-4.178E+00	 8.477E+01	-3.095E+01	 3.731E+02	 1.594E+03	 2.621E+02	 3.775E+01	 1.874E+02	-2.822E+00	 1.623E+02	-2.660E+00
   7.758	 1.292E+01	-4.537E+00	 2.051E+00	-3.639E-01	 2.639E+01	-8.784E-01	 7.663E+00	-7.477E-01	 4.782E+00	 4.031E+00	 2.295E+00	 2.018E+02	-4.537E+00	 8.532E+01	-2.462E+01	 2.965E+02	 1.580E+03	 2.640E+02	-8.136E+00	 1.967E+02	-3.519E+00	 1.742E+02	-5.912E+00
   7.830	 1.301E+01	-4.907E+00	 2.018E+00	-3.370E-01	 2.712E+01	-1.080E+00	 6.994E+00	-4.778E-01	 4.943E+00	 2.345E+00	 1.697E+00	 1.493E+02	-4.907E+00	 8.339E+01	-1.819E+01	 2.200E+02	 1.552E+03	 2.577E+02	-5.392E+01	 2.065E+02	-5.013E+00	 1.894E+02	-6.466E+00
   7.900	 1.310E+01	-5.276E+00	 1.989E+00	-3.144E-01	 2.685E+01	-8.753E-01	 6.483E+00	-3.003E-01	 5.189E+00	 1.790E+00	 2.744E+00	 2.414E+02	-5.276E+00	 8.194E+01	-1.169E+01	 1.440E+02	 1.528E+03	 2.442E+02	-9.632E+01	 2.172E+02	-6.457E+00	 2.056E+02	-5.748E+00
   7.975	 1.320E+01	-5.689E+00	 1.958E+00	-2.880E-01	 2.625E+01	-9.819E-01	 5.770E+00	-1.260E-01	 5.441E+00	 7.899E-01	 3.372E+00	 2.966E+02	-5.689E+00	 8.037E+01	-4.575E+00	 5.906E+01	 1.503E+03	 2.221E+02	-1.382E+02	 2.299E+02	-7.291E+00	 2.226E+02	-6.335E+00
   8.043	 1.329E+01	-6.071E+00	 1.930E+00	-2.634E-01	 2.457E+01	-1.064E-01	 6.661E+00	-5.144E-01	 5.690E+00	 4.052E+00	 1.711E+00	 1.505E+02	-6.071E+00	 8.086E+01	 2.316E+00	-2.281E+01	 1.491E+03	 1.962E+02	-1.719E+02	 2.423E+02	-7.697E+00	 2.377E+02	-8.237E+00
   8.107	 1.339E+01	-6.447E+00	 1.902E+00	-2.378E-01	 2.614E+01	-1.188E+00	 5.155E+00	-1.178E-01	 5.855E+00	 2.497E-01	 2.269E+00	 1.996E+02	-6.447E+00	 7.815E+01	 7.901E+00	-9.165E+01	 1.460E+03	 1.666E+02	-1.995E+02	 2.530E+02	-7.239E+00	 2.520E+02	-1.037E+01
   8.172	 1.348E+01	-6.836E+00	 1.874E+00	-2.172E-01	 2.484E+01	-8.022E-02	 5.988E+00	-5.188E-01	 6.096E+00	 3.755E+00	 1.534E+00	 1.349E+02	-6.836E+00	 7.865E+01	 1.387E+01	-1.609E+02	 1.448E+03	 1.332E+02	-2.229E+02	 2.633E+02	-7.814E+00	 2.669E+02	-1.019E+01
   8.237	 1.358E+01	-7.235E+00	 1.848E+00	-1.967E-01	 2.666E+01	-5.831E-01	 4.850E+00	-2.660E-01	 6.264E+00	 1.440E+00	 2.224E+00	 1.956E+02	-7.235E+00	 7.649E+01	 1.868E+01	-2.181E+02	 1.423E+03	 9.645E+01	-2.403E+02	 2.720E+02	-8.336E+00	 2.803E+02	-8.784E+00
   8.300	 1.367E+01	-7.624E+00	 1.825E+00	-1.824E-01	 2.495E+01	 3.726E-01	 5.394E+00	-6.459E-01	 6.522E+00	 4.502E+00	 1.584E+00	 1.394E+02	-7.624E+00	 7.707E+01	 2.336E+01	-2.724E+02	 1.416E+03	 5.902E+01	-2.517E+02	 2.799E+02	-8.851E+00	 2.911E+02	-7.543E+00
   8.365	 1.378E+01	-8.043E+00	 1.806E+00	-1.672E-01	 2.640E+01	-5.575E-01	 4.266E+00	-3.755E-01	 6.692E+00	 1.136E+00	 2.296E+00	 2.020E+02	-8.043E+00	 7.523E+01	 2.674E+01	-3.150E+02	 1.396E+03	 1.919E+01	-2.570E+02	 2.862E+02	-8.025E+00	 2.991E+02	-8.138E+00
   8.428	 1.388E+01	-8.452E+00	 1.791E+00	-1.592E-01	 2.440E+01	 2.856E-01	 4.881E+00	-7.816E-01	 6.949E+00	 4.001E+00	 1.493E+00	 1.313E+02	-8.452E+00	 7.619E+01	 3.004E+01	-3.538E+02	 1.397E+03	-1.952E+01	-2.567E+02	 2.911E+02	-7.260E+00	 3.050E+02	-8.925E+00
   8.492	 1.398E+01	-8.886E+00	 1.782E+00	-1.522E-01	 2.569E+01	-7.595E-01	 3.531E+00	-4.654E-01	 7.125E+00	 3.378E-01	 2.566E+00	 2.257E+02	-8.886E+00	 7.457E+01	 3.188E+01	-3.777E+02	 1.385E+03	-5.911E+01	-2.500E+02	 2.933E+02	-6.199E+00	 3.086E+02	-8.889E+00
   8.557	 1.409E+01	-9.332E+00	 1.778E+00	-1.527E-01	 2.363E+01	 2.478E-01	 4.769E+00	-9.381E-01	 7.387E+00	 4.301E+00	 1.881E+00	 1.654E+02	-9.332E+00	 7.638E+01	 3.364E+01	-3.981E+02	 1.396E+03	-9.785E+01	-2.379E+02	 2.940E+02	-6.305E+00	 3.104E+02	-6.616E+00
   8.620	 1.420E+01	-9.766E+00	 1.778E+00	-1.554E-01	 2.477E+01	-6.449E-01	 3.899E+00	-6.768E-01	 7.571E+00	 1.607E+00	 2.786E+00	 2.450E+02	-9.766E+00	 7.538E+01	 3.379E+01	-4.019E+02	 1.393E+03	-1.326E+02	-2.203E+02	 2.921E+02	-5.897E+00	 3.088E+02	-4.501E+00
   8.685	 1.431E+01	-1.023E+01	 1.782E+00	-1.655E-01	 2.239E+01	 1.909E-01	 4.886E+00	-1.085E+00	 7.851E+00	 5.164E+00	 2.005E+00	 1.764E+02	-1.023E+01	 7.716E+01	 3.373E+01	-4.008E+02	 1.409E+03	-1.658E+02	-1.971E+02	 2.890E+02	-5.371E+00	 3.042E+02	-3.190E+00
   8.748	 1.443E+01	-1.068E+01	 1.786E+00	-1.767E-01	 2.327E+01	-1.085E+00	 3.697E+00	-6.729E-01	 8.039E+00	 8.560E-01	 3.327E+00	 2.927E+02	-1.068E+01	 7.588E+01	 3.195E+01	-3.823E+02	 1.406E+03	-1.935E+02	-1.701E+02	 2.834E+02	-3.666E+00	 2.968E+02	-3.554E+00
   8.812	 1.454E+01	-1.116E+01	 1.789E+00	-1.953E-01	 2.117E+01	-8.234E-02	 5.196E+00	-1.113E+00	 8.327E+00	 4.952E+00	 2.217E+00	 1.950E+02	-1.116E+01	 7.799E+01	 3.004E+01	-3.591E+02	 1.422E+03	-2.182E+02	-1.379E+02	 2.765E+02	-2.839E+00	 2.876E+02	-2.979E+00
   8.877	 1.466E+01	-1.164E+01	 1.789E+00	-2.147E-01	 2.254E+01	-1.311E+00	 4.027E+00	-6.529E-01	 8.524E+00	 6.361E-01	 3.707E+00	 3.261E+02	-1.164E+01	 7.648E+01	 2.640E+01	-3.178E+02	 1.416E+03	-2.377E+02	-1.022E+02	 2.669E+02	-1.778E+00	 2.764E+02	-1.717E+00
   8.942	 1.478E+01	-1.214E+01	 1.784E+00	-2.401E-01	 2.036E+01	-1.228E-01	 5.639E+00	-1.063E+00	 8.818E+00	 5.244E+00	 2.709E+00	 2.383E+02	-1.214E+01	 7.837E+01	 2.275E+01	-2.734E+02	 1.426E+03	-2.514E+02	-6.334E+01	 2.567E+02	-1.916E+00	 2.640E+02	 7.996E-01
   9.005	 1.490E+01	-1.262E+01	 1.773E+00	-2.636E-01	 2.196E+01	-9.069E-01	 4.833E+00	-6.783E-01	 9.026E+00	 2.189E+00	 3.476E+00	 3.058E+02	-1.262E+01	 7.657E+01	 1.804E+01	-2.180E+02	 1.411E+03	-2.588E+02	-2.462E+01	 2.453E+02	-1.249E+00	 2.500E+02	 1.988E+00
   9.070	 1.503E+01	-1.312E+01	 1.751E+00	-2.914E-01	 1.989E+01	 3.651E-02	 5.911E+00	-9.668E-01	 9.336E+00	 5.558E+00	 2.701E+00	 2.376E+02	-1.312E+01	 7.768E+01	 1.303E+01	-1.585E+02	 1.408E+03	-2.600E+02	 1.664E+01	 2.331E+02	-6.819E-01	 2.347E+02	 2.203E+00
   9.133	 1.515E+01	-1.362E+01	 1.721E+00	-3.148E-01	 2.171E+01	-1.041E+00	 4.554E+00	-4.584E-01	 9.539E+00	 1.079E+00	 3.385E+00	 2.978E+02	-1.362E+01	 7.503E+01	 7.273E+00	-9.177E+01	 1.379E+03	-2.551E+02	 5.577E+01	 2.200E+02	 3.847E-01	 2.187E+02	 1.571E+00
   9.197	 1.528E+01	-1.414E+01	 1.681E+00	-3.413E-01	 2.000E+01	 1.476E-01	 5.977E+00	-7.961E-01	 9.849E+00	 5.208E+00	 2.144E+00	 1.886E+02	-1.414E+01	 7.559E+01	 1.647E+00	-2.459E+01	 1.364E+03	-2.435E+02	 9.586E+01	 2.066E+02	 3.125E-01	 2.026E+02	 2.021E+00
   9.262	 1.541E+01	-1.467E+01	 1.632E+00	-3.632E-01	 2.212E+01	-5.221E-01	 4.923E+00	-3.700E-01	 1.005E+01	 1.946E+00	 2.808E+00	 2.470E+02	-1.467E+01	 7.297E+01	-4.882E+00	 5.053E+01	 1.325E+03	-2.256E+02	 1.335E+02	 1.922E+02	 3.326E-01	 1.860E+02	 2.739E+00
   9.325	 1.553E+01	-1.519E+01	 1.577E+00	-3.857E-01	 2.001E+01	 4.888E-01	 5.725E+00	-5.869E-01	 1.036E+01	 4.837E+00	 2.331E+00	 2.051E+02	-1.519E+01	 7.256E+01	-1.051E+01	 1.176E+02	 1.298E+03	-2.027E+02	 1.669E+02	 1.791E+02	-1.732E-01	 1.705E+02	 3.467E+00
   9.390	 1.567E+01	-1.573E+01	 1.513E+00	-4.027E-01	 2.168E+01	-1.373E-01	 4.593E+00	-1.938E-01	 1.057E+01	 1.468E+00	 2.613E+00	 2.299E+02	-1.573E+01	 6.999E+01	-1.687E+01	 1.900E+02	 1.253E+03	-1.737E+02	 1.973E+02	 1.653E+02	-1.948E-01	 1.541E+02	 2.926E+00
   9.453	 1.580E+01	-1.626E+01	 1.447E+00	-4.190E-01	 1.988E+01	 8.611E-01	 5.333E+00	-4.269E-01	 1.088E+01	 4.151E+00	 1.628E+00	 1.432E+02	-1.626E+01	 6.918E+01	-2.188E+01	 2.499E+02	 1.218E+03	-1.414E+02	 2.218E+02	 1.533E+02	-4.822E-01	 1.392E+02	 1.837E+00
   9.518	 1.593E+01	-1.681E+01	 1.375E+00	-4.296E-01	 2.101E+01	 6.702E-02	 3.730E+00	 2.253E-02	 1.108E+01	 3.818E-02	 2.215E+00	 1.948E+02	-1.681E+01	 6.672E+01	-2.765E+01	 3.136E+02	 1.169E+03	-1.040E+02	 2.419E+02	 1.407E+02	-5.248E-01	 1.246E+02	 4.267E-01
   9.582	 1.607E+01	-1.737E+01	 1.302E+00	-4.390E-01	 1.879E+01	 1.247E+00	 4.939E+00	-2.503E-01	 1.137E+01	 3.339E+00	 1.068E+00	 9.395E+01	-1.737E+01	 6.561E+01	-3.162E+01	 3.617E+02	 1.130E+03	-6.370E+01	 2.557E+02	 1.300E+02	-1.667E+00	 1.120E+02	 2.367E-01
   9.647	 1.621E+01	-1.793E+01	 1.230E+00	-4.423E-01	 1.961E+01	 7.693E-01	 3.806E+00	 8.928E-02	 1.157E+01	 6.283E-01	 1.267E+00	 1.115E+02	-1.793E+01	 6.349E+01	-3.586E+01	 4.081E+02	 1.083E+03	-2.147E+01	 2.630E+02	 1.198E+02	-2.650E+00	 1.009E+02	-7.482E-02
   9.710	 1.634E+01	-1.848E+01	 1.161E+00	-4.440E-01	 1.681E+01	 1.648E+00	 4.500E+00	-9.064E-02	 1.186E+01	 2.864E+00	 6.907E-01	 6.076E+01	-1.848E+01	 6.242E+01	-3.824E+01	 4.371E+02	 1.046E+03	 1.969E+01	 2.632E+02	 1.122E+02	-3.745E+00	 9.219E+01	-7.973E-01
   9.775	 1.648E+01	-1.906E+01	 1.091E+00	-4.393E-01	 1.725E+01	 1.037E+00	 3.465E+00	 2.566E-01	 1.205E+01	-1.922E-01	 7.467E-01	 6.569E+01	-1.906E+01	 6.038E+01	-4.079E+01	 4.634E+02	 9.995E+02	 6.201E+01	 2.570E+02	 1.052E+02	-4.409E+00	 8.474E+01	-2.618E+00
   9.838	 1.662E+01	-1.961E+01	 1.025E+00	-4.330E-01	 1.462E+01	 1.894E+00	 4.207E+00	 8.006E-02	 1.233E+01	 1.995E+00	-2.209E-01	-1.943E+01	-1.961E+01	 5.911E+01	-4.134E+01	 4.717E+02	 9.609E+02	 1.012E+02	 2.443E+02	 1.006E+02	-5.412E+00	 7.998E+01	-4.350E+00
   9.902	 1.676E+01	-2.020E+01	 9.599E-01	-4.208E-01	 1.476E+01	 1.049E+00	 2.864E+00	 5.148E-01	 1.251E+01	-1.771E+00	 2.688E-01	 2.364E+01	-2.020E+01	 5.668E+01	-4.215E+01	 4.779E+02	 9.117E+02	 1.393E+02	 2.253E+02	 9.671E+01	-6.203E+00	 7.703E+01	-6.037E+00
   9.967	 1.691E+01	-2.079E+01	 8.970E-01	-4.063E-01	 1.223E+01	 2.242E+00	 4.068E+00	 2.961E-01	 1.277E+01	 1.342E+00	-8.184E-01	-7.199E+01	-2.079E+01	 5.520E+01	-4.061E+01	 4.634E+02	 8.713E+02	 1.739E+02	 1.995E+02	 9.476E+01	-7.828E+00	 7.672E+01	-6.811E+00
  10.032	 1.706E+01	-2.138E+01	 8.379E-01	-3.858E-01	 1.305E+01	 1.699E+00	 3.351E+00	 6.496E-01	 1.290E+01	-1.248E+00	-6.985E-01	-6.145E+01	-2.138E+01	 5.254E+01	-3.920E+01	 4.454E+02	 8.226E+02	 2.035E+02	 1.691E+02	 9.389E+01	-8.934E+00	 7.754E+01	-7.981E+00
  10.095	 1.720E+01	-2.195E+01	 7.864E-01	-3.637E-01	 1.172E+01	 2.308E+00	 3.915E+00	 5.882E-01	 1.306E+01	 2.094E-01	-1.585E+00	-1.394E+02	-2.195E+01	 5.080E+01	-3.617E+01	 4.120E+02	 7.836E+02	 2.269E+02	 1.353E+02	 9.461E+01	-1.005E+01	 7.971E+01	-9.445E+00
  10.160	 1.734E+01	-2.255E+01	 7.418E-01	-3.380E-01	 1.184E+01	 1.829E+00	 3.510E+00	 8.824E-01	 1.316E+01	-1.906E+00	-1.333E+00	-1.173E+02	-2.255E+01	 4.791E+01	-3.281E+01	 3.719E+02	 7.387E+02	 2.449E+02	 9.701E+01	 9.630E+01	-1.058E+01	 8.266E+01	-1.146E+01
  10.223	 1.749E+01	-2.313E+01	 7.070E-01	-3.126E-01	 1.023E+01	 2.289E+00	 3.925E+00	 8.191E-01	 1.331E+01	-5.320E-01	-1.734E+00	-1.525E+02	-2.313E+01	 4.646E+01	-2.825E+01	 3.200E+02	 7.086E+02	 2.566E+02	 5.777E+01	 9.913E+01	-1.138E+01	 8.676E+01	-1.273E+01
  10.287	 1.764E+01	-2.374E+01	 6.793E-01	-2.841E-01	 1.071E+01	 1.621E+00	 3.168E+00	 1.068E+00	 1.340E+01	-2.465E+00	-1.304E+00	-1.147E+02	-2.374E+01	 4.360E+01	-2.335E+01	 2.620E+02	 6.732E+02	 2.616E+02	 1.566E+01	 1.025E+02	-1.212E+01	 9.189E+01	-1.332E+01
  10.352	 1.779E+01	-2.435E+01	 6.598E-01	-2.560E-01	 9.168E+00	 2.054E+00	 3.758E+00	 9.665E-01	 1.354E+01	-1.015E+00	-1.864E+00	-1.640E+02	-2.435E+01	 4.248E+01	-1.746E+01	 1.939E+02	 6.513E+02	 2.604E+02	-2.671E+01	 1.070E+02	-1.309E+01	 9.773E+01	-1.329E+01
  10.415	 1.793E+01	-2.493E+01	 6.476E-01	-2.288E-01	 9.803E+00	 1.752E+00	 3.307E+00	 1.093E+00	 1.363E+01	-2.005E+00	-1.680E+00	-1.478E+02	-2.493E+01	 3.995E+01	-1.180E+01	 1.279E+02	 6.242E+02	 2.524E+02	-6.662E+01	 1.116E+02	-1.345E+01	 1.038E+02	-1.373E+01
  10.480	 1.808E+01	-2.555E+01	 6.401E-01	-2.017E-01	 8.887E+00	 2.125E+00	 3.629E+00	 1.002E+00	 1.377E+01	-1.035E+00	-1.805E+00	-1.587E+02	-2.555E+01	 3.883E+01	-5.482E+00	 5.491E+01	 6.080E+02	 2.382E+02	-1.061E+02	 1.173E+02	-1.355E+01	 1.106E+02	-1.434E+01
  10.543	 1.823E+01	-2.614E+01	 6.381E-01	-1.759E-01	 9.766E+00	 1.716E+00	 2.926E+00	 1.111E+00	 1.386E+01	-2.268E+00	-1.607E+00	-1.413E+02	-2.614E+01	 3.648E+01	 3.673E-01	-1.380E+01	 5.879E+02	 2.187E+02	-1.415E+02	 1.225E+02	-1.350E+01	 1.178E+02	-1.467E+01
  10.607	 1.838E+01	-2.676E+01	 6.411E-01	-1.512E-01	 9.190E+00	 2.119E+00	 3.388E+00	 9.650E-01	 1.399E+01	-1.178E+00	-1.982E+00	-1.744E+02	-2.676E+01	 3.613E+01	 6.626E+00	-8.703E+01	 5.827E+02	 1.933E+02	-1.746E+02	 1.287E+02	-1.369E+01	 1.257E+02	-1.416E+01
  10.672	 1.853E+01	-2.738E+01	 6.496E-01	-1.285E-01	 1.051E+01	 1.742E+00	 2.675E+00	 1.038E+00	 1.407E+01	-2.332E+00	-1.499E+00	-1.319E+02	-2.738E+01	 3.455E+01	 1.231E+01	-1.545E+02	 5.743E+02	 1.625E+02	-2.032E+02	 1.342E+02	-1.359E+01	 1.339E+02	-1.356E+01
  10.737	 1.868E+01	-2.800E+01	 6.644E-01	-1.098E-01	 9.896E+00	 2.203E+00	 3.133E+00	 8.509E-01	 1.420E+01	-1.060E+00	-1.810E+00	-1.592E+02	-2.800E+01	 3.506E+01	 1.793E+01	-2.205E+02	 5.824E+02	 1.282E+02	-2.265E+02	 1.402E+02	-1.354E+01	 1.416E+02	-1.286E+01
  10.800	 1.883E+01	-2.859E+01	 6.845E-01	-9.505E-02	 1.123E+01	 1.919E+00	 2.555E+00	 8.896E-01	 1.429E+01	-1.997E+00	-1.666E+00	-1.466E+02	-2.859E+01	 3.463E+01	 2.251E+01	-2.756E+02	 5.890E+02	 9.225E+01	-2.434E+02	 1.452E+02	-1.308E+01	 1.486E+02	-1.266E+01
  10.865	 1.898E+01	-2.922E+01	 7.112E-01	-8.482E-02	 1.079E+01	 2.302E+00	 2.812E+00	 6.989E-01	 1.442E+01	-8.720E-01	-1.919E+00	-1.688E+02	-2.922E+01	 3.587E+01	 2.694E+01	-3.279E+02	 6.103E+02	 5.260E+01	-2.548E+02	 1.499E+02	-1.261E+01	 1.551E+02	-1.245E+01
  10.928	 1.913E+01	-2.981E+01	 7.429E-01	-7.955E-02	 1.160E+01	 1.808E+00	 2.059E+00	 8.101E-01	 1.450E+01	-2.538E+00	-1.627E+00	-1.431E+02	-2.981E+01	 3.627E+01	 2.997E+01	-3.658E+02	 6.295E+02	 1.367E+01	-2.597E+02	 1.534E+02	-1.202E+01	 1.601E+02	-1.206E+01
  10.992	 1.928E+01	-3.044E+01	 7.813E-01	-8.034E-02	 1.114E+01	 2.376E+00	 2.556E+00	 5.875E-01	 1.463E+01	-9.273E-01	-2.007E+00	-1.766E+02	-3.044E+01	 3.820E+01	 3.288E+01	-3.993E+02	 6.633E+02	-2.762E+01	-2.584E+02	 1.562E+02	-1.174E+01	 1.642E+02	-1.117E+01
  11.057	 1.944E+01	-3.106E+01	 8.245E-01	-8.648E-02	 1.209E+01	 2.114E+00	 2.015E+00	 6.611E-01	 1.471E+01	-2.008E+00	-1.725E+00	-1.517E+02	-3.106E+01	 3.973E+01	 3.427E+01	-4.173E+02	 6.968E+02	-6.758E+01	-2.503E+02	 1.577E+02	-1.121E+01	 1.664E+02	-1.034E+01
  11.120	 1.958E+01	-3.166E+01	 8.695E-01	-9.844E-02	 1.149E+01	 2.425E+00	 2.338E+00	 5.268E-01	 1.483E+01	-1.130E+00	-1.842E+00	-1.620E+02	-3.166E+01	 4.183E+01	 3.509E+01	-4.266E+02	 7.358E+02	-1.046E+02	-2.368E+02	 1.582E+02	-1.072E+01	 1.669E+02	-9.671E+00
  11.185	 1.974E+01	-3.228E+01	 9.182E-01	-1.153E-01	 1.208E+01	 2.203E+00	 1.895E+00	 5.770E-01	 1.491E+01	-2.008E+00	-1.744E+00	-1.534E+02	-3.228E+01	 4.381E+01	 3.459E+01	-4.220E+02	 7.751E+02	-1.405E+02	-2.167E+02	 1.572E+02	-1.008E+01	 1.659E+02	-9.166E+00
  11.248	 1.988E+01	-3.288E+01	 9.643E-01	-1.365E-01	 1.125E+01	 2.460E+00	 2.211E+00	 4.701E-01	 1.503E+01	-1.310E+00	-1.923E+00	-1.691E+02	-3.288E+01	 4.599E+01	 3.352E+01	-4.085E+02	 8.153E+02	-1.717E+02	-1.927E+02	 1.555E+02	-9.611E+00	 1.632E+02	-8.486E+00
  11.312	 2.004E+01	-3.350E+01	 1.010E+00	-1.617E-01	 1.169E+01	 2.204E+00	 1.706E+00	 5.526E-01	 1.511E+01	-2.264E+00	-1.690E+00	-1.486E+02	-3.350E+01	 4.802E+01	 3.107E+01	-3.801E+02	 8.533E+02	-1.997E+02	-1.626E+02	 1.522E+02	-9.165E+00	 1.593E+02	-7.635E+00
  11.377	 2.019E+01	-3.412E+01	 1.050E+00	-1.908E-01	 1.102E+01	 2.530E+00	 2.181E+00	 4.653E-01	 1.523E+01	-1.303E+00	-1.801E+00	-1.585E+02	-3.412E+01	 5.006E+01	 2.810E+01	-3.430E+02	 8.893E+02	-2.232E+02	-1.289E+02	 1.486E+02	-8.938E+00	 1.541E+02	-6.678E+00
  11.442	 2.034E+01	-3.474E+01	 1.083E+00	-2.206E-01	 1.142E+01	 2.391E+00	 1.838E+00	 5.321E-01	 1.531E+01	-1.843E+00	-1.688E+00	-1.485E+02	-3.474E+01	 5.191E+01	 2.355E+01	-2.940E+02	 9.184E+02	-2.410E+02	-9.141E+01	 1.438E+02	-8.776E+00	 1.483E+02	-5.974E+00
  11.505	 2.048E+01	-3.533E+01	 1.104E+00	-2.502E-01	 1.081E+01	 2.506E+00	 2.118E+00	 5.060E-01	 1.542E+01	-1.346E+00	-1.977E+00	-1.739E+02	-3.533E+01	 5.344E+01	 1.912E+01	-2.402E+02	 9.412E+02	-2.529E+02	-5.366E+01	 1.390E+02	-8.811E+00	 1.420E+02	-5.489E+00
  11.570	 2.064E+01	-3.594E+01	 1.116E+00	-2.797E-01	 1.124E+01	 2.394E+00	 1.772E+00	 6.205E-01	 1.550E+01	-2.077E+00	-1.869E+00	-1.644E+02	-3.594E+01	 5.460E+01	 1.368E+01	-1.750E+02	 9.561E+02	-2.592E+02	-1.289E+01	 1.331E+02	-8.808E+00	 1.354E+02	-5.555E+00
  11.633	 2.078E+01	-3.653E+01	 1.115E+00	-3.074E-01	 1.058E+01	 2.721E+00	 2.061E+00	 6.174E-01	 1.561E+01	-1.409E+00	-2.001E+00	-1.760E+02	-3.653E+01	 5.553E+01	 8.220E+00	-1.081E+02	 9.638E+02	-2.592E+02	 2.664E+01	 1.273E+02	-9.047E+00	 1.287E+02	-5.840E+00
  11.697	 2.093E+01	-3.714E+01	 1.101E+00	-3.325E-01	 1.110E+01	 2.615E+00	 1.511E+00	 7.743E-01	 1.568E+01	-2.454E+00	-1.470E+00	-1.293E+02	-3.714E+01	 5.676E+01	 1.397E+00	-3.211E+01	 9.634E+02	-2.525E+02	 6.782E+01	 1.205E+02	-9.370E+00	 1.216E+02	-6.522E+00
  11.762	 2.108E+01	-3.775E+01	 1.074E+00	-3.542E-01	 1.056E+01	 2.967E+00	 1.890E+00	 7.177E-01	 1.579E+01	-1.299E+00	-2.258E+00	-1.986E+02	-3.775E+01	 5.759E+01	-5.337E+00	 4.299E+01	 9.570E+02	-2.392E+02	 1.075E+02	 1.138E+02	-1.044E+01	 1.137E+02	-6.947E+00
  11.825	 2.122E+01	-3.833E+01	 1.038E+00	-3.703E-01	 1.117E+01	 2.736E+00	 1.402E+00	 8.824E-01	 1.585E+01	-2.687E+00	-2.419E+00	-2.128E+02	-3.833E+01	 5.720E+01	-1.162E+01	 1.146E+02	 9.381E+02	-2.208E+02	 1.427E+02	 1.071E+02	-1.138E+01	 1.053E+02	-7.821E+00
  11.890	 2.137E+01	-3.893E+01	 9.899E-01	-3.839E-01	 1.070E+01	 3.089E+00	 1.551E+00	 8.924E-01	 1.594E+01	-2.143E+00	-2.765E+00	-2.432E+02	-3.893E+01	 5.722E+01	-1.768E+01	 1.863E+02	 9.173E+02	-1.960E+02	 1.759E+02	 9.966E+01	-1.239E+01	 9.672E+01	-9.432E+00
  11.953	 2.151E+01	-3.950E+01	 9.376E-01	-3.933E-01	 1.093E+01	 3.144E+00	 1.052E+00	 1.012E+00	 1.600E+01	-3.035E+00	-2.686E+00	-2.363E+02	-3.950E+01	 5.616E+01	-2.294E+01	 2.516E+02	 8.886E+02	-1.674E+02	 2.030E+02	 9.205E+01	-1.322E+01	 8.838E+01	-1.150E+01
  12.018	 2.166E+01	-4.009E+01	 8.777E-01	-3.991E-01	 1.014E+01	 3.452E+00	 9.171E-01	 1.004E+00	 1.608E+01	-2.607E+00	-3.242E+00	-2.852E+02	-4.009E+01	 5.421E+01	-2.731E+01	 3.107E+02	 8.545E+02	-1.338E+02	 2.259E+02	 8.463E+01	-1.442E+01	 7.927E+01	-1.332E+01
  12.082	 2.180E+01	-4.068E+01	 8.136E-01	-3.994E-01	 9.753E+00	 3.275E+00	 6.538E-01	 1.106E+00	 1.613E+01	-3.292E+00	-3.096E+00	-2.724E+02	-4.068E+01	 5.294E+01	-3.299E+01	 3.674E+02	 8.201E+02	-9.576E+01	 2.445E+02	 7.666E+01	-1.578E+01	 7.050E+01	-1.494E+01
  12.147	 2.195E+01	-4.127E+01	 7.464E-01	-3.956E-01	 8.924E+00	 3.175E+00	 1.141E+00	 1.133E+00	 1.620E+01	-3.543E+00	-3.833E+00	-3.371E+02	-4.127E+01	 5.144E+01	-3.627E+01	 4.112E+02	 7.828E+02	-5.581E+01	 2.560E+02	 6.948E+01	-1.745E+01	 6.166E+01	-1.600E+01
  12.210	 2.208E+01	-4.183E+01	 6.800E-01	-3.893E-01	 8.038E+00	 3.359E+00	 6.006E-01	 1.168E+00	 1.623E+01	-3.496E+00	-3.477E+00	-3.058E+02	-4.183E+01	 4.987E+01	-3.896E+01	 4.476E+02	 7.441E+02	-1.599E+01	 2.606E+02	 6.367E+01	-1.852E+01	 5.317E+01	-1.767E+01
  12.275	 2.222E+01	-4.240E+01	 6.095E-01	-3.792E-01	 6.624E+00	 3.458E+00	 6.670E-01	 1.180E+00	 1.629E+01	-3.402E+00	-3.542E+00	-3.116E+02	-4.240E+01	 4.791E+01	-4.072E+01	 4.763E+02	 6.997E+02	 2.536E+01	 2.596E+02	 5.858E+01	-1.968E+01	 4.581E+01	-1.930E+01
  12.338	 2.236E+01	-4.295E+01	 5.404E-01	-3.647E-01	 5.982E+00	 3.190E+00	 4.644E-01	 1.223E+00	 1.632E+01	-3.966E+00	-3.828E+00	-3.367E+02	-4.295E+01	 4.591E+01	-4.230E+01	 4.957E+02	 6.528E+02	 6.494E+01	 2.534E+02	 5.414E+01	-2.095E+01	 4.123E+01	-2.051E+01
  12.402	 2.250E+01	-4.352E+01	 4.672E-01	-3.458E-01	 5.103E+00	 3.144E+00	 5.283E-01	 1.221E+00	 1.637E+01	-3.892E+00	-3.680E+00	-3.237E+02	-4.352E+01	 4.343E+01	-4.302E+01	 5.059E+02	 5.989E+02	 1.047E+02	 2.402E+02	 5.068E+01	-2.220E+01	 3.872E+01	-2.162E+01
  12.467	 2.264E+01	-4.408E+01	 3.938E-01	-3.232E-01	 4.385E+00	 3.055E+00	 3.762E-01	 1.242E+00	 1.640E+01	-4.052E+00	-3.859E+00	-3.395E+02	-4.408E+01	 4.035E+01	-4.291E+01	 5.070E+02	 5.379E+02	 1.419E+02	 2.211E+02	 4.856E+01	-2.355E+01	 3.729E+01	-2.252E+01
  12.530	 2.277E+01	-4.461E+01	 3.240E-01	-2.984E-01	 3.072E+00	 3.052E+00	 6.488E-01	 1.291E+00	 1.643E+01	-4.082E+00	-4.293E+00	-3.776E+02	-4.461E+01	 3.683E+01	-4.195E+01	 4.987E+02	 4.738E+02	 1.742E+02	 1.976E+02	 4.788E+01	-2.484E+01	 3.663E+01	-2.340E+01
  12.595	 2.290E+01	-4.516E+01	 2.523E-01	-2.698E-01	 1.809E+00	 2.851E+00	 7.140E-01	 1.415E+00	 1.645E+01	-4.573E+00	-4.525E+00	-3.981E+02	-4.516E+01	 3.276E+01	-4.024E+01	 4.821E+02	 4.038E+02	 2.033E+02	 1.689E+02	 4.787E+01	-2.586E+01	 3.733E+01	-2.477E+01
  12.658	 2.303E+01	-4.568E+01	 1.849E-01	-2.404E-01	 3.111E+00	 3.035E+00	 6.627E-01	 1.524E+00	 1.647E+01	-4.472E+00	-4.635E+00	-4.077E+02	-4.568E+01	 2.868E+01	-3.788E+01	 4.594E+02	 3.369E+02	 2.265E+02	 1.378E+02	 4.843E+01	-2.656E+01	 3.948E+01	-2.638E+01
  12.723	 2.316E+01	-4.622E+01	 1.227E-01	-2.094E-01	 2.085E+00	 3.081E+00	 6.358E-01	 1.671E+00	 1.647E+01	-5.189E+00	-5.145E+00	-4.526E+02	-4.622E+01	 2.342E+01	-3.485E+01	 4.289E+02	 2.593E+02	 2.449E+02	 1.023E+02	 4.899E+01	-2.729E+01	 4.279E+01	-2.786E+01
  12.787	 2.329E+01	-4.675E+01	 6.851E-02	-1.784E-01	 5.373E-01	 3.384E+00	 1.162E+00	 1.828E+00	 1.647E+01	-5.570E+00	-5.562E+00	-4.893E+02	-4.675E+01	 1.821E+01	-3.109E+01	 3.907E+02	 1.857E+02	 2.574E+02	 6.443E+01	 4.988E+01	-2.780E+01	 4.594E+01	-2.914E+01
  12.852	 2.342E+01	-4.728E+01	 2.012E-02	-1.459E-01	 8.426E-02	 3.537E+00	 8.364E-01	 1.948E+00	 1.646E+01	-5.507E+00	-5.540E+00	-4.873E+02	-4.728E+01	 1.330E+01	-2.643E+01	 3.428E+02	 1.233E+02	 2.632E+02	 2.496E+01	 5.165E+01	-2.805E+01	 4.795E+01	-3.004E+01
  12.915	 2.354E+01	-4.777E+01	-2.038E-02	-1.130E-01	-1.022E-01	 3.296E+00	 9.941E-01	 2.036E+00	 1.644E+01	-5.979E+00	-5.896E+00	-5.187E+02	-4.777E+01	 8.946E+00	-2.157E+01	 2.898E+02	 7.035E+01	 2.629E+02	-1.334E+01	 5.360E+01	-2.825E+01	 4.925E+01	-3.023E+01
  12.980	 2.367E+01	-4.828E+01	-5.593E-02	-7.890E-02	-1.140E+00	 3.213E+00	 1.244E+00	 2.096E+00	 1.642E+01	-6.163E+00	-6.177E+00	-5.433E+02	-4.828E+01	 4.817E+00	-1.619E+01	 2.298E+02	 1.928E+01	 2.568E+02	-5.257E+01	 5.541E+01	-2.816E+01	 5.116E+01	-3.005E+01
  13.043	 2.379E+01	-4.877E+01	-8.533E-02	-4.679E-02	-1.261E+00	 3.363E+00	 1.026E+00	 2.131E+00	 1.638E+01	-5.903E+00	-5.968E+00	-5.250E+02	-4.877E+01	 9.067E-01	-1.077E+01	 1.692E+02	-2.703E+01	 2.458E+02	-8.930E+01	 5.674E+01	-2.764E+01	 5.394E+01	-2.971E+01
  13.107	 2.391E+01	-4.926E+01	-1.116E-01	-1.345E-02	-1.282E+00	 3.449E+00	 9.907E-01	 2.146E+00	 1.635E+01	-5.648E+00	-5.871E+00	-5.164E+02	-4.926E+01	-1.989E+00	-5.016E+00	 1.029E+02	-6.344E+01	 2.282E+02	-1.248E+02	 5.855E+01	-2.693E+01	 5.659E+01	-2.875E+01
  13.172	 2.403E+01	-4.975E+01	-1.317E-01	 1.962E-02	-5.130E-01	 3.098E+00	 9.495E-01	 2.176E+00	 1.631E+01	-6.015E+00	-5.923E+00	-5.210E+02	-4.975E+01	-4.364E+00	 6.794E-01	 3.466E+01	-9.076E+01	 2.063E+02	-1.579E+02	 6.112E+01	-2.623E+01	 5.857E+01	-2.702E+01
  13.237	 2.415E+01	-5.023E+01	-1.434E-01	 5.005E-02	-1.782E-01	 2.983E+00	 1.093E+00	 2.101E+00	 1.628E+01	-5.632E+00	-5.969E+00	-5.251E+02	-5.023E+01	-5.371E+00	 6.404E+00	-3.438E+01	-1.037E+02	 1.791E+02	-1.870E+02	 6.417E+01	-2.541E+01	 6.092E+01	-2.496E+01
  13.300	 2.426E+01	-5.068E+01	-1.444E-01	 7.515E-02	 5.072E-01	 2.859E+00	 9.540E-01	 2.030E+00	 1.623E+01	-5.730E+00	-5.609E+00	-4.934E+02	-5.068E+01	-5.707E+00	 1.154E+01	-9.779E+01	-1.055E+02	 1.496E+02	-2.115E+02	 6.708E+01	-2.442E+01	 6.438E+01	-2.305E+01
  13.365	 2.437E+01	-5.114E+01	-1.333E-01	 9.604E-02	 1.012E+00	 3.027E+00	 1.071E+00	 1.847E+00	 1.620E+01	-4.946E+00	-5.694E+00	-5.009E+02	-5.114E+01	-4.438E+00	 1.675E+01	-1.619E+02	-8.846E+01	 1.159E+02	-2.324E+02	 7.014E+01	-2.352E+01	 6.942E+01	-2.108E+01
  13.428	 2.448E+01	-5.158E+01	-1.085E-01	 1.102E-01	 2.216E+00	 2.696E+00	 1.056E+00	 1.805E+00	 1.616E+01	-5.613E+00	-5.282E+00	-4.646E+02	-5.158E+01	-2.421E+00	 2.102E+01	-2.172E+02	-5.692E+01	 8.144E+01	-2.477E+02	 7.315E+01	-2.254E+01	 7.462E+01	-1.946E+01
  13.492	 2.459E+01	-5.203E+01	-6.512E-02	 1.173E-01	 2.749E+00	 2.700E+00	 1.337E+00	 1.687E+00	 1.612E+01	-5.442E+00	-5.403E+00	-4.753E+02	-5.203E+01	 1.107E+00	 2.510E+01	-2.706E+02	-4.946E+00	 4.415E+01	-2.583E+02	 7.659E+01	-2.180E+01	 7.947E+01	-1.792E+01
  13.557	 2.470E+01	-5.246E+01	-2.297E-03	 1.151E-01	 3.678E+00	 2.584E+00	 1.121E+00	 1.704E+00	 1.607E+01	-5.791E+00	-5.543E+00	-4.876E+02	-5.246E+01	 4.851E+00	 2.837E+01	-3.146E+02	 5.811E+01	 6.147E+00	-2.631E+02	 7.927E+01	-2.114E+01	 8.371E+01	-1.698E+01
  13.620	 2.480E+01	-5.288E+01	 7.635E-02	 1.031E-01	 3.970E+00	 2.731E+00	 1.317E+00	 1.693E+00	 1.603E+01	-5.547E+00	-5.716E+00	-5.028E+02	-5.288E+01	 9.253E+00	 3.089E+01	-3.482E+02	 1.330E+02	-3.010E+01	-2.623E+02	 8.110E+01	-2.049E+01	 8.699E+01	-1.678E+01
  13.685	 2.490E+01	-5.330E+01	 1.749E-01	 8.058E-02	 3.673E+00	 3.150E+00	 1.081E+00	 1.761E+00	 1.596E+01	-5.683E+00	-5.580E+00	-4.908E+02	-5.330E+01	 1.399E+01	 3.244E+01	-3.699E+02	 2.195E+02	-6.706E+01	-2.555E+02	 8.177E+01	-1.976E+01	 8.928E+01	-1.719E+01
  13.748	 2.500E+01	-5.369E+01	 2.817E-01	 5.133E-02	 3.926E+00	 3.368E+00	 1.325E+00	 1.747E+00	 1.591E+01	-5.587E+00	-5.755E+00	-5.062E+02	-5.369E+01	 1.894E+01	 3.324E+01	-3.820E+02	 3.116E+02	-1.009E+02	-2.439E+02	 8.202E+01	-1.935E+01	 8.950E+01	-1.742E+01
  13.812	 2.510E+01	-5.409E+01	 4.018E-01	 1.441E-02	 4.879E+00	 3.621E+00	 9.492E-01	 1.781E+00	 1.583E+01	-6.103E+00	-5.902E+00	-5.192E+02	-5.409E+01	 2.398E+01	 3.287E+01	-3.810E+02	 4.088E+02	-1.342E+02	-2.261E+02	 8.094E+01	-1.921E+01	 8.792E+01	-1.746E+01
  13.877	 2.519E+01	-5.448E+01	 5.278E-01	-2.862E-02	 4.302E+00	 4.015E+00	 1.110E+00	 1.694E+00	 1.577E+01	-5.570E+00	-6.396E+00	-5.627E+02	-5.448E+01	 2.842E+01	 3.195E+01	-3.712E+02	 5.006E+02	-1.649E+02	-2.040E+02	 7.941E+01	-1.925E+01	 8.426E+01	-1.743E+01
  13.942	 2.529E+01	-5.486E+01	 6.527E-01	-7.631E-02	 3.303E+00	 4.120E+00	 7.283E-01	 1.780E+00	 1.567E+01	-6.168E+00	-6.128E+00	-5.391E+02	-5.486E+01	 3.247E+01	 2.977E+01	-3.458E+02	 5.861E+02	-1.911E+02	-1.772E+02	 7.653E+01	-1.895E+01	 7.978E+01	-1.780E+01
  14.005	 2.537E+01	-5.522E+01	 7.629E-01	-1.236E-01	 3.370E+00	 4.457E+00	 9.292E-01	 1.711E+00	 1.561E+01	-5.384E+00	-5.530E+00	-4.864E+02	-5.522E+01	 3.616E+01	 2.684E+01	-3.129E+02	 6.619E+02	-2.135E+02	-1.483E+02	 7.359E+01	-1.868E+01	 7.515E+01	-1.810E+01
  14.070	 2.546E+01	-5.558E+01	 8.613E-01	-1.698E-01	 3.384E+00	 4.161E+00	 6.846E-01	 1.743E+00	 1.552E+01	-6.073E+00	-5.578E+00	-4.907E+02	-5.558E+01	 3.893E+01	 2.339E+01	-2.696E+02	 7.267E+02	-2.327E+02	-1.156E+02	 7.009E+01	-1.893E+01	 7.023E+01	-1.753E+01
  14.133	 2.554E+01	-5.591E+01	 9.354E-01	-2.112E-01	 3.165E+00	 4.258E+00	 9.556E-01	 1.606E+00	 1.546E+01	-5.196E+00	-5.425E+00	-4.772E+02	-5.591E+01	 4.283E+01	 1.765E+01	-2.159E+02	 7.770E+02	-2.460E+02	-8.029E+01	 6.729E+01	-1.935E+01	 6.559E+01	-1.687E+01
  14.197	 2.563E+01	-5.625E+01	 9.871E-01	-2.493E-01	 3.220E+00	 4.024E+00	 6.225E-01	 1.625E+00	 1.536E+01	-5.917E+00	-5.465E+00	-4.808E+02	-5.625E+01	 4.397E+01	 1.205E+01	-1.529E+02	 8.040E+02	-2.556E+02	-4.321E+01	 6.481E+01	-1.979E+01	 6.087E+01	-1.641E+01
  14.262	 2.571E+01	-5.658E+01	 1.011E+00	-2.822E-01	 4.220E+00	 4.196E+00	 9.184E-01	 1.484E+00	 1.530E+01	-4.838E+00	-4.598E+00	-4.044E+02	-5.658E+01	 4.661E+01	 4.502E+00	-7.797E+01	 8.239E+02	-2.593E+02	-4.114E+00	 6.274E+01	-2.013E+01	 5.783E+01	-1.668E+01
  14.325	 2.579E+01	-5.689E+01	 1.011E+00	-3.062E-01	 5.733E+00	 4.000E+00	 6.730E-01	 1.442E+00	 1.521E+01	-4.871E+00	-4.690E+00	-4.126E+02	-5.689E+01	 4.772E+01	-2.353E+00	-6.018E+00	 8.253E+02	-2.584E+02	 3.308E+01	 6.084E+01	-2.102E+01	 5.640E+01	-1.677E+01
  14.390	 2.586E+01	-5.720E+01	 9.908E-01	-3.257E-01	 6.926E+00	 3.869E+00	 8.283E-01	 1.434E+00	 1.515E+01	-4.997E+00	-5.035E+00	-4.429E+02	-5.720E+01	 4.762E+01	-8.706E+00	 6.625E+01	 8.107E+02	-2.525E+02	 7.034E+01	 5.950E+01	-2.218E+01	 5.588E+01	-1.722E+01
  14.453	 2.593E+01	-5.748E+01	 9.581E-01	-3.392E-01	 7.883E+00	 3.902E+00	 5.694E-01	 1.402E+00	 1.506E+01	-4.596E+00	-4.114E+00	-3.619E+02	-5.748E+01	 4.863E+01	-1.549E+01	 1.406E+02	 7.990E+02	-2.416E+02	 1.056E+02	 5.779E+01	-2.302E+01	 5.611E+01	-1.885E+01
  14.518	 2.600E+01	-5.777E+01	 9.148E-01	-3.493E-01	 8.907E+00	 3.946E+00	 9.145E-01	 1.364E+00	 1.500E+01	-4.110E+00	-4.675E+00	-4.112E+02	-5.777E+01	 4.780E+01	-2.076E+01	 2.060E+02	 7.742E+02	-2.256E+02	 1.389E+02	 5.679E+01	-2.436E+01	 5.513E+01	-2.070E+01
  14.582	 2.607E+01	-5.804E+01	 8.686E-01	-3.558E-01	 9.428E+00	 3.889E+00	 2.401E-01	 1.423E+00	 1.490E+01	-4.699E+00	-4.712E+00	-4.145E+02	-5.804E+01	 4.718E+01	-2.584E+01	 2.668E+02	 7.496E+02	-2.046E+02	 1.694E+02	 5.548E+01	-2.560E+01	 5.347E+01	-2.319E+01
  14.647	 2.613E+01	-5.830E+01	 8.230E-01	-3.608E-01	 8.842E+00	 3.873E+00	 2.613E-01	 1.474E+00	 1.483E+01	-4.818E+00	-4.783E+00	-4.208E+02	-5.830E+01	 4.610E+01	-2.982E+01	 3.196E+02	 7.251E+02	-1.797E+02	 1.959E+02	 5.398E+01	-2.681E+01	 5.143E+01	-2.586E+01
  14.710	 2.619E+01	-5.854E+01	 7.809E-01	-3.637E-01	 8.200E+00	 3.805E+00	-9.748E-02	 1.556E+00	 1.471E+01	-5.337E+00	-4.978E+00	-4.379E+02	-5.854E+01	 4.540E+01	-3.325E+01	 3.652E+02	 7.069E+02	-1.519E+02	 2.177E+02	 5.164E+01	-2.808E+01	 4.946E+01	-2.822E+01
  14.775	 2.625E+01	-5.878E+01	 7.390E-01	-3.666E-01	 7.571E+00	 3.917E+00	 6.229E-01	 1.634E+00	 1.463E+01	-5.528E+00	-5.286E+00	-4.649E+02	-5.878E+01	 4.422E+01	-3.565E+01	 4.035E+02	 6.883E+02	-1.205E+02	 2.357E+02	 4.958E+01	-2.928E+01	 4.635E+01	-3.033E+01
  14.838	 2.630E+01	-5.900E+01	 7.011E-01	-3.683E-01	 6.858E+00	 4.151E+00	 1.908E-01	 1.648E+00	 1.449E+01	-5.267E+00	-5.013E+00	-4.409E+02	-5.900E+01	 4.340E+01	-3.798E+01	 4.379E+02	 6.733E+02	-8.777E+01	 2.486E+02	 4.797E+01	-3.006E+01	 4.257E+01	-3.229E+01
  14.902	 2.636E+01	-5.922E+01	 6.621E-01	-3.677E-01	 6.045E+00	 4.251E+00	 4.038E-01	 1.541E+00	 1.440E+01	-4.349E+00	-4.750E+00	-4.178E+02	-5.922E+01	 4.288E+01	-4.017E+01	 4.665E+02	 6.589E+02	-5.220E+01	 2.576E+02	 4.746E+01	-3.074E+01	 3.879E+01	-3.353E+01
  14.967	 2.641E+01	-5.942E+01	 6.225E-01	-3.626E-01	 5.211E+00	 3.616E+00	-1.458E-01	 1.522E+00	 1.427E+01	-5.255E+00	-5.215E+00	-4.587E+02	-5.942E+01	 4.201E+01	-4.169E+01	 4.872E+02	 6.422E+02	-1.539E+01	 2.613E+02	 4.616E+01	-3.152E+01	 3.741E+01	-3.373E+01
  15.030	 2.645E+01	-5.961E+01	 5.828E-01	-3.562E-01	 4.703E+00	 3.348E+00	 5.354E-01	 1.454E+00	 1.417E+01	-5.172E+00	-4.604E+00	-4.050E+02	-5.961E+01	 4.109E+01	-4.283E+01	 5.030E+02	 6.247E+02	 2.026E+01	 2.601E+02	 4.597E+01	-3.172E+01	 3.746E+01	-3.375E+01
  15.095	 2.650E+01	-5.979E+01	 5.414E-01	-3.475E-01	 4.809E+00	 3.265E+00	 3.529E-01	 1.341E+00	 1.403E+01	-4.580E+00	-4.266E+00	-3.753E+02	-5.979E+01	 4.098E+01	-4.374E+01	 5.141E+02	 6.061E+02	 5.723E+01	 2.545E+02	 4.689E+01	-3.174E+01	 3.826E+01	-3.340E+01
  15.158	 2.654E+01	-5.995E+01	 5.025E-01	-3.372E-01	 4.872E+00	 3.237E+00	 1.058E+00	 1.213E+00	 1.395E+01	-3.634E+00	-4.072E+00	-3.582E+02	-5.995E+01	 4.024E+01	-4.361E+01	 5.161E+02	 5.843E+02	 9.140E+01	 2.437E+02	 4.967E+01	-3.164E+01	 3.968E+01	-3.254E+01
  15.223	 2.658E+01	-6.011E+01	 4.658E-01	-3.235E-01	 5.359E+00	 2.546E+00	 6.138E-01	 1.223E+00	 1.383E+01	-4.237E+00	-3.766E+00	-3.313E+02	-6.011E+01	 3.937E+01	-4.341E+01	 5.117E+02	 5.598E+02	 1.253E+02	 2.285E+02	 5.304E+01	-3.143E+01	 4.316E+01	-3.122E+01
  15.287	 2.661E+01	-6.025E+01	 4.351E-01	-3.095E-01	 5.214E+00	 2.413E+00	 7.053E-01	 1.193E+00	 1.374E+01	-3.538E+00	-3.210E+00	-2.824E+02	-6.025E+01	 3.790E+01	-4.226E+01	 4.984E+02	 5.317E+02	 1.562E+02	 2.089E+02	 5.751E+01	-3.091E+01	 4.908E+01	-3.005E+01
  15.352	 2.664E+01	-6.038E+01	 4.124E-01	-2.955E-01	 5.271E+00	 2.017E+00	 7.739E-01	 1.188E+00	 1.363E+01	-3.901E+00	-3.661E+00	-3.220E+02	-6.038E+01	 3.549E+01	-4.072E+01	 4.805E+02	 4.971E+02	 1.844E+02	 1.859E+02	 6.109E+01	-3.046E+01	 5.710E+01	-2.902E+01
  15.415	 2.667E+01	-6.050E+01	 3.978E-01	-2.834E-01	 4.425E+00	 2.244E+00	 1.726E+00	 1.136E+00	 1.354E+01	-3.346E+00	-3.513E+00	-3.090E+02	-6.050E+01	 3.298E+01	-3.848E+01	 4.577E+02	 4.659E+02	 2.079E+02	 1.607E+02	 6.580E+01	-2.971E+01	 6.394E+01	-2.837E+01
  15.480	 2.670E+01	-6.061E+01	 3.905E-01	-2.707E-01	 5.278E+00	 2.162E+00	 1.043E+00	 1.162E+00	 1.342E+01	-3.596E+00	-3.078E+00	-2.708E+02	-6.061E+01	 2.960E+01	-3.579E+01	 4.293E+02	 4.329E+02	 2.278E+02	 1.319E+02	 7.128E+01	-2.885E+01	 6.962E+01	-2.764E+01
  15.543	 2.672E+01	-6.070E+01	 3.909E-01	-2.580E-01	 4.315E+00	 2.326E+00	 1.219E+00	 1.120E+00	 1.334E+01	-3.203E+00	-3.311E+00	-2.913E+02	-6.070E+01	 2.764E+01	-3.267E+01	 3.949E+02	 4.132E+02	 2.431E+02	 1.025E+02	 7.662E+01	-2.817E+01	 7.470E+01	-2.676E+01
  15.607	 2.674E+01	-6.078E+01	 3.986E-01	-2.442E-01	 5.122E+00	 2.094E+00	 9.384E-01	 1.179E+00	 1.321E+01	-3.724E+00	-3.527E+00	-3.102E+02	-6.078E+01	 2.381E+01	-2.878E+01	 3.538E+02	 3.878E+02	 2.544E+02	 6.960E+01	 8.021E+01	-2.722E+01	 8.094E+01	-2.633E+01
  15.672	 2.676E+01	-6.085E+01	 4.127E-01	-2.311E-01	 4.115E+00	 2.410E+00	 1.518E+00	 1.198E+00	 1.312E+01	-3.363E+00	-3.458E+00	-3.041E+02	-6.085E+01	 2.216E+01	-2.456E+01	 3.083E+02	 3.785E+02	 2.609E+02	 3.635E+01	 8.398E+01	-2.584E+01	 8.594E+01	-2.618E+01
  15.735	 2.677E+01	-6.091E+01	 4.319E-01	-2.176E-01	 5.161E+00	 2.433E+00	 1.189E+00	 1.255E+00	 1.298E+01	-3.409E+00	-3.121E+00	-2.745E+02	-6.091E+01	 1.983E+01	-2.009E+01	 2.596E+02	 3.682E+02	 2.622E+02	 3.368E+00	 8.723E+01	-2.450E+01	 8.908E+01	-2.563E+01
  15.800	 2.679E+01	-6.096E+01	 4.559E-01	-2.021E-01	 4.036E+00	 2.436E+00	 1.287E+00	 1.250E+00	 1.289E+01	-3.195E+00	-3.288E+00	-2.892E+02	-6.096E+01	 1.944E+01	-1.519E+01	 2.027E+02	 3.724E+02	 2.589E+02	-3.057E+01	 9.132E+01	-2.342E+01	 9.048E+01	-2.396E+01
  15.863	 2.679E+01	-6.099E+01	 4.816E-01	-1.853E-01	 5.300E+00	 2.112E+00	 1.046E+00	 1.255E+00	 1.275E+01	-3.318E+00	-2.908E+00	-2.558E+02	-6.099E+01	 1.835E+01	-1.034E+01	 1.448E+02	 3.747E+02	 2.521E+02	-6.329E+01	 9.427E+01	-2.220E+01	 9.248E+01	-2.215E+01
  15.928	 2.680E+01	-6.101E+01	 5.100E-01	-1.677E-01	 4.815E+00	 2.283E+00	 1.407E+00	 1.096E+00	 1.266E+01	-2.323E+00	-2.779E+00	-2.445E+02	-6.101E+01	 1.879E+01	-4.952E+00	 8.032E+01	 3.884E+02	 2.410E+02	-9.619E+01	 9.719E+01	-2.074E+01	 9.552E+01	-2.035E+01
  15.992	 2.680E+01	-6.102E+01	 5.403E-01	-1.497E-01	 6.208E+00	 1.963E+00	 1.165E+00	 1.018E+00	 1.253E+01	-2.380E+00	-2.433E+00	-2.140E+02	-6.102E+01	 1.805E+01	 3.321E-01	 1.610E+01	 3.973E+02	 2.253E+02	-1.274E+02	 9.921E+01	-1.908E+01	 9.954E+01	-1.863E+01
  16.060	 2.680E+01	-6.102E+01	 5.744E-01	-1.315E-01	 6.079E+00	 1.830E+00	 1.345E+00	 8.281E-01	 1.245E+01	-1.928E+00	-2.225E+00	-1.958E+02	-6.102E+01	 1.927E+01	 5.920E+00	-5.265E+01	 4.214E+02	 2.047E+02	-1.572E+02	 1.024E+02	-1.755E+01	 1.026E+02	-1.636E+01
  16.130	 2.680E+01	-6.102E+01	 6.140E-01	-1.133E-01	 7.061E+00	 1.726E+00	 1.643E+00	 5.914E-01	 1.234E+01	-1.161E+00	-1.620E+00	-1.425E+02	-6.102E+01	 2.116E+01	 1.161E+01	-1.235E+02	 4.542E+02	 1.785E+02	-1.853E+02	 1.063E+02	-1.619E+01	 1.053E+02	-1.366E+01
  16.198	 2.680E+01	-6.102E+01	 6.576E-01	-9.788E-02	 7.765E+00	 1.180E+00	 1.698E+00	 5.092E-01	 1.224E+01	-1.512E+00	-1.279E+00	-1.125E+02	-6.102E+01	 2.305E+01	 1.660E+01	-1.876E+02	 4.902E+02	 1.501E+02	-2.085E+02	 1.099E+02	-1.518E+01	 1.083E+02	-1.105E+01
  16.268	 2.680E+01	-6.102E+01	 7.099E-01	-8.632E-02	 8.719E+00	 1.221E+00	 2.010E+00	 2.635E-01	 1.217E+01	-5.961E-01	-5.895E-01	-5.185E+01	-6.102E+01	 2.628E+01	 2.161E+01	-2.506E+02	 5.397E+02	 1.174E+02	-2.286E+02	 1.134E+02	-1.415E+01	 1.129E+02	-9.338E+00
  16.338	 2.680E+01	-6.102E+01	 7.713E-01	-7.890E-02	 9.924E+00	 8.195E-01	 1.954E+00	 1.883E-01	 1.209E+01	-8.044E-01	-5.405E-01	-4.754E+01	-6.102E+01	 2.913E+01	 2.592E+01	-3.064E+02	 5.921E+02	 8.295E+01	-2.445E+02	 1.163E+02	-1.355E+01	 1.179E+02	-8.242E+00
  16.405	 2.680E+01	-6.102E+01	 8.397E-01	-7.732E-02	 1.030E+01	 6.872E-01	 2.156E+00	 8.534E-02	 1.204E+01	-5.791E-01	-4.983E-01	-4.384E+01	-6.102E+01	 3.310E+01	 2.950E+01	-3.527E+02	 6.546E+02	 4.837E+01	-2.548E+02	 1.191E+02	-1.337E+01	 1.216E+02	-7.767E+00
  16.475	 2.680E+01	-6.102E+01	 9.200E-01	-8.209E-02	 1.119E+01	 6.978E-01	 2.153E+00	 5.818E-02	 1.197E+01	-4.465E-01	-5.117E-01	-4.501E+01	-6.102E+01	 3.696E+01	 3.241E+01	-3.893E+02	 7.220E+02	 1.176E+01	-2.602E+02	 1.214E+02	-1.351E+01	 1.240E+02	-8.065E+00
  16.545	 2.680E+01	-6.102E+01	 1.008E+00	-9.385E-02	 1.108E+01	 7.812E-01	 1.900E+00	 9.989E-02	 1.190E+01	-4.555E-01	-4.165E-01	-3.664E+01	-6.102E+01	 4.067E+01	 3.442E+01	-4.134E+02	 7.908E+02	-2.475E+01	-2.601E+02	 1.227E+02	-1.380E+01	 1.252E+02	-9.310E+00
  16.615	 2.680E+01	-6.102E+01	 1.099E+00	-1.118E-01	 1.035E+01	 9.893E-01	 2.063E+00	 8.764E-02	 1.185E+01	-3.524E-01	-3.801E-01	-3.344E+01	-6.102E+01	 4.424E+01	 3.553E+01	-4.251E+02	 8.593E+02	-6.056E+01	-2.543E+02	 1.232E+02	-1.425E+01	 1.253E+02	-1.123E+01
  16.685	 2.680E+01	-6.102E+01	 1.187E+00	-1.334E-01	 1.041E+01	 1.011E+00	 1.944E+00	 1.303E-01	 1.177E+01	-7.913E-01	-5.682E-01	-4.999E+01	-6.102E+01	 4.727E+01	 3.560E+01	-4.233E+02	 9.216E+02	-9.554E+01	-2.424E+02	 1.223E+02	-1.509E+01	 1.245E+02	-1.323E+01
  16.755	 2.680E+01	-6.102E+01	 1.266E+00	-1.587E-01	 9.471E+00	 1.296E+00	 1.847E+00	 1.156E-01	 1.172E+01	-5.304E-01	-5.281E-01	-4.646E+01	-6.102E+01	 4.952E+01	 3.489E+01	-4.097E+02	 9.726E+02	-1.286E+02	-2.254E+02	 1.213E+02	-1.612E+01	 1.219E+02	-1.505E+01
  16.823	 2.680E+01	-6.102E+01	 1.329E+00	-1.833E-01	 9.198E+00	 1.500E+00	 1.681E+00	 1.421E-01	 1.164E+01	-3.351E-01	-8.835E-01	-7.772E+01	-6.102E+01	 5.086E+01	 3.337E+01	-3.853E+02	 1.007E+03	-1.579E+02	-2.043E+02	 1.200E+02	-1.743E+01	 1.184E+02	-1.633E+01
  16.893	 2.680E+01	-6.102E+01	 1.373E+00	-2.083E-01	 8.512E+00	 1.567E+00	 1.754E+00	 1.492E-01	 1.159E+01	-1.964E-01	-2.426E-01	-2.134E+01	-6.102E+01	 5.150E+01	 3.074E+01	-3.500E+02	 1.026E+03	-1.856E+02	-1.784E+02	 1.181E+02	-1.847E+01	 1.152E+02	-1.786E+01
  16.963	 2.680E+01	-6.102E+01	 1.393E+00	-2.298E-01	 8.552E+00	 1.462E+00	 1.786E+00	 1.298E-01	 1.152E+01	-3.760E-02	-5.860E-01	-5.154E+01	-6.102E+01	 5.129E+01	 2.761E+01	-3.068E+02	 1.027E+03	-2.094E+02	-1.491E+02	 1.162E+02	-1.971E+01	 1.126E+02	-1.907E+01
  17.030	 2.680E+01	-6.102E+01	 1.388E+00	-2.469E-01	 8.769E+00	 1.202E+00	 1.704E+00	 1.201E-01	 1.145E+01	-2.348E-01	 1.075E-01	 9.453E+00	-6.102E+01	 5.090E+01	 2.325E+01	-2.557E+02	 1.013E+03	-2.287E+02	-1.176E+02	 1.143E+02	-2.052E+01	 1.108E+02	-2.042E+01
  17.100	 2.680E+01	-6.102E+01	 1.357E+00	-2.609E-01	 9.518E+00	 9.863E-01	 1.924E+00	 5.203E-02	 1.141E+01	-1.577E-01	 2.206E-01	 1.940E+01	-6.102E+01	 4.962E+01	 1.809E+01	-1.981E+02	 9.819E+02	-2.436E+02	-8.250E+01	 1.136E+02	-2.159E+01	 1.088E+02	-2.123E+01
  17.170	 2.680E+01	-6.102E+01	 1.306E+00	-2.704E-01	 1.067E+01	 8.057E-01	 2.050E+00	-7.030E-02	 1.136E+01	 4.701E-01	 4.531E-01	 3.986E+01	-6.102E+01	 4.952E+01	 1.122E+01	-1.315E+02	 9.476E+02	-2.526E+02	-4.447E+01	 1.132E+02	-2.278E+01	 1.078E+02	-2.174E+01
  17.240	 2.680E+01	-6.102E+01	 1.242E+00	-2.771E-01	 1.165E+01	 5.127E-01	 2.031E+00	-1.061E-01	 1.133E+01	 2.914E-01	 6.277E-01	 5.522E+01	-6.102E+01	 4.831E+01	 4.759E+00	-6.573E+01	 9.028E+02	-2.572E+02	-6.299E+00	 1.137E+02	-2.394E+01	 1.076E+02	-2.220E+01
  17.310	 2.680E+01	-6.102E+01	 1.171E+00	-2.817E-01	 1.232E+01	 3.234E-01	 2.015E+00	-1.886E-01	 1.130E+01	 8.588E-01	 1.037E+00	 9.124E+01	-6.102E+01	 4.812E+01	-2.282E+00	 4.616E+00	 8.641E+02	-2.563E+02	 3.252E+01	 1.142E+02	-2.497E+01	 1.091E+02	-2.311E+01
  17.380	 2.680E+01	-6.102E+01	 1.101E+00	-2.859E-01	 1.286E+01	 1.610E-01	 1.871E+00	-1.939E-01	 1.127E+01	 9.250E-01	 9.666E-01	 8.503E+01	-6.102E+01	 4.741E+01	-8.412E+00	 6.995E+01	 8.255E+02	-2.504E+02	 7.010E+01	 1.150E+02	-2.600E+01	 1.110E+02	-2.423E+01
  17.448	 2.680E+01	-6.102E+01	 1.040E+00	-2.909E-01	 1.316E+01	 9.974E-02	 1.818E+00	-1.667E-01	 1.126E+01	 8.566E-01	 8.745E-01	 7.693E+01	-6.102E+01	 4.655E+01	-1.357E+01	 1.287E+02	 7.925E+02	-2.396E+02	 1.045E+02	 1.160E+02	-2.688E+01	 1.126E+02	-2.559E+01
  17.518	 2.680E+01	-6.102E+01	 9.857E-01	-2.978E-01	 1.326E+01	 2.797E-01	 1.932E+00	-1.107E-01	 1.123E+01	 7.823E-01	 7.461E-01	 6.563E+01	-6.102E+01	 4.553E+01	-1.813E+01	 1.850E+02	 7.641E+02	-2.232E+02	 1.375E+02	 1.167E+02	-2.759E+01	 1.136E+02	-2.728E+01
  17.588	 2.680E+01	-6.102E+01	 9.440E-01	-3.067E-01	 1.210E+01	 6.062E-01	 1.910E+00	-6.329E-02	 1.121E+01	 7.475E-01	 6.632E-01	 5.834E+01	-6.102E+01	 4.465E+01	-2.211E+01	 2.365E+02	 7.418E+02	-2.014E+02	 1.672E+02	 1.169E+02	-2.803E+01	 1.140E+02	-2.907E+01
  17.658	 2.680E+01	-6.102E+01	 9.126E-01	-3.155E-01	 1.077E+01	 6.714E-01	 1.927E+00	-3.618E-02	 1.117E+01	 5.770E-01	 4.699E-01	 4.133E+01	-6.102E+01	 4.392E+01	-2.563E+01	 2.819E+02	 7.270E+02	-1.754E+02	 1.933E+02	 1.168E+02	-2.833E+01	 1.138E+02	-3.035E+01
  17.725	 2.680E+01	-6.102E+01	 8.879E-01	-3.231E-01	 9.901E+00	 5.261E-01	 1.732E+00	 1.169E-02	 1.113E+01	 6.019E-03	 2.361E-01	 2.077E+01	-6.102E+01	 4.342E+01	-2.877E+01	 3.214E+02	 7.220E+02	-1.463E+02	 2.145E+02	 1.162E+02	-2.852E+01	 1.130E+02	-3.083E+01
  17.795	 2.680E+01	-6.102E+01	 8.667E-01	-3.312E-01	 9.414E+00	 5.618E-01	 1.958E+00	 4.237E-03	 1.110E+01	 1.492E-01	 1.216E-01	 1.069E+01	-6.102E+01	 4.332E+01	-3.165E+01	 3.584E+02	 7.231E+02	-1.135E+02	 2.323E+02	 1.157E+02	-2.839E+01	 1.114E+02	-3.070E+01
  17.865	 2.680E+01	-6.102E+01	 8.496E-01	-3.391E-01	 8.499E+00	 6.829E-01	 2.087E+00	 4.464E-02	 1.104E+01	 7.115E-02	 1.697E-01	 1.493E+01	-6.102E+01	 4.331E+01	-3.408E+01	 3.910E+02	 7.252E+02	-7.867E+01	 2.453E+02	 1.155E+02	-2.782E+01	 1.097E+02	-3.004E+01
  17.935	 2.680E+01	-6.102E+01	 8.330E-01	-3.456E-01	 7.354E+00	 7.362E-01	 2.089E+00	 5.039E-02	 1.101E+01	 2.615E-01	 2.848E-01	 2.505E+01	-6.102E+01	 4.382E+01	-3.640E+01	 4.196E+02	 7.312E+02	-4.227E+01	 2.536E+02	 1.154E+02	-2.687E+01	 1.093E+02	-2.889E+01
  18.005	 2.680E+01	-6.102E+01	 8.150E-01	-3.488E-01	 7.827E+00	 6.015E-01	 2.358E+00	 5.410E-02	 1.096E+01	 4.522E-01	 1.291E-02	 1.135E+00	-6.102E+01	 4.461E+01	-3.825E+01	 4.419E+02	 7.400E+02	-5.025E+00	 2.569E+02	 1.157E+02	-2.581E+01	 1.103E+02	-2.699E+01
  18.073	 2.680E+01	-6.102E+01	 7.985E-01	-3.501E-01	 8.094E+00	 3.000E-01	 2.317E+00	 9.814E-02	 1.091E+01	-9.760E-03	 3.124E-01	 2.748E+01	-6.102E+01	 4.527E+01	-3.976E+01	 4.591E+02	 7.483E+02	 3.105E+01	 2.549E+02	 1.167E+02	-2.443E+01	 1.118E+02	-2.488E+01
  18.143	 2.680E+01	-6.102E+01	 7.846E-01	-3.502E-01	 8.184E+00	 3.522E-01	 2.583E+00	 4.281E-02	 1.088E+01	 5.382E-01	 7.344E-01	 6.460E+01	-6.102E+01	 4.675E+01	-4.075E+01	 4.692E+02	 7.588E+02	 6.822E+01	 2.474E+02	 1.188E+02	-2.288E+01	 1.140E+02	-2.247E+01
  18.213	 2.680E+01	-6.102E+01	 7.756E-01	-3.481E-01	 8.540E+00	 1.907E-01	 2.643E+00	 6.149E-03	 1.084E+01	 6.169E-01	 6.624E-01	 5.827E+01	-6.102E+01	 4.803E+01	-4.080E+01	 4.708E+02	 7.708E+02	 1.038E+02	 2.349E+02	 1.216E+02	-2.150E+01	 1.170E+02	-1.975E+01
  18.283	 2.680E+01	-6.102E+01	 7.731E-01	-3.444E-01	 8.610E+00	 5.931E-02	 2.677E+00	-5.199E-02	 1.082E+01	 8.255E-01	 1.187E+00	 1.045E+02	-6.102E+01	 4.931E+01	-4.035E+01	 4.637E+02	 7.841E+02	 1.376E+02	 2.176E+02	 1.246E+02	-2.000E+01	 1.213E+02	-1.737E+01
  18.350	 2.680E+01	-6.102E+01	 7.782E-01	-3.395E-01	 8.431E+00	-2.292E-02	 2.753E+00	-9.298E-02	 1.080E+01	 9.623E-01	 8.921E-01	 7.848E+01	-6.102E+01	 5.014E+01	-3.919E+01	 4.489E+02	 7.941E+02	 1.672E+02	 1.972E+02	 1.278E+02	-1.886E+01	 1.257E+02	-1.526E+01
  18.420	 2.680E+01	-6.102E+01	 7.897E-01	-3.335E-01	 8.333E+00	-7.006E-02	 2.720E+00	-9.675E-02	 1.078E+01	 8.487E-01	 9.054E-01	 7.964E+01	-6.102E+01	 5.025E+01	-3.733E+01	 4.264E+02	 7.976E+02	 1.944E+02	 1.722E+02	 1.309E+02	-1.765E+01	 1.300E+02	-1.382E+01
  18.490	 2.680E+01	-6.102E+01	 8.059E-01	-3.264E-01	 7.679E+00	 1.075E-01	 2.827E+00	-7.630E-02	 1.077E+01	 7.903E-01	 8.033E-01	 7.066E+01	-6.102E+01	 4.890E+01	-3.469E+01	 3.963E+02	 7.879E+02	 2.171E+02	 1.434E+02	 1.333E+02	-1.658E+01	 1.334E+02	-1.303E+01
  18.560	 2.680E+01	-6.102E+01	 8.235E-01	-3.173E-01	 7.423E+00	 3.424E-01	 2.796E+00	-1.731E-02	 1.074E+01	 6.389E-01	 6.440E-01	 5.665E+01	-6.102E+01	 4.678E+01	-3.146E+01	 3.598E+02	 7.710E+02	 2.348E+02	 1.118E+02	 1.350E+02	-1.563E+01	 1.356E+02	-1.274E+01
  18.630	 2.680E+01	-6.102E+01	 8.397E-01	-3.052E-01	 7.954E+00	 5.292E-01	 2.685E+00	 4.432E-02	 1.073E+01	 6.424E-01	 6.682E-01	 5.878E+01	-6.102E+01	 4.466E+01	-2.743E+01	 3.152E+02	 7.557E+02	 2.476E+02	 7.753E+01	 1.358E+02	-1.482E+01	 1.366E+02	-1.275E+01
  18.698	 2.680E+01	-6.102E+01	 8.558E-01	-2.905E-01	 8.719E+00	 5.258E-01	 2.601E+00	 1.333E-01	 1.070E+01	 4.072E-01	 4.200E-01	 3.694E+01	-6.102E+01	 4.244E+01	-2.290E+01	 2.653E+02	 7.425E+02	 2.548E+02	 4.264E+01	 1.357E+02	-1.440E+01	 1.362E+02	-1.255E+01
  18.768	 2.680E+01	-6.102E+01	 8.750E-01	-2.738E-01	 8.925E+00	 5.297E-01	 2.534E+00	 1.772E-01	 1.067E+01	 2.252E-01	 2.085E-01	 1.834E+01	-6.102E+01	 4.027E+01	-1.777E+01	 2.085E+02	 7.302E+02	 2.572E+02	 5.515E+00	 1.350E+02	-1.415E+01	 1.346E+02	-1.222E+01
  18.838	 2.680E+01	-6.102E+01	 8.975E-01	-2.563E-01	 9.476E+00	 7.113E-01	 2.603E+00	 1.830E-01	 1.063E+01	 3.809E-01	-2.722E-01	-2.394E+01	-6.102E+01	 3.862E+01	-1.237E+01	 1.482E+02	 7.227E+02	 2.541E+02	-3.151E+01	 1.342E+02	-1.407E+01	 1.320E+02	-1.184E+01
  18.908	 2.680E+01	-6.102E+01	 9.240E-01	-2.386E-01	 1.051E+01	 7.414E-01	 2.440E+00	 2.020E-01	 1.059E+01	 2.737E-01	 4.104E-01	 3.610E+01	-6.102E+01	 3.718E+01	-6.955E+00	 8.604E+01	 7.203E+02	 2.466E+02	-6.823E+01	 1.331E+02	-1.370E+01	 1.299E+02	-1.187E+01
  18.975	 2.680E+01	-6.102E+01	 9.549E-01	-2.214E-01	 1.111E+01	 7.307E-01	 2.433E+00	 1.467E-01	 1.057E+01	 3.700E-01	 1.285E-01	 1.130E+01	-6.102E+01	 3.672E+01	-1.541E+00	 2.218E+01	 7.272E+02	 2.341E+02	-1.022E+02	 1.321E+02	-1.382E+01	 1.288E+02	-1.152E+01
  19.045	 2.680E+01	-6.102E+01	 9.938E-01	-2.041E-01	 1.209E+01	 6.231E-01	 2.492E+00	 9.542E-02	 1.053E+01	 2.965E-01	 4.904E-01	 4.313E+01	-6.102E+01	 3.668E+01	 4.118E+00	-4.537E+01	 7.422E+02	 2.168E+02	-1.360E+02	 1.313E+02	-1.391E+01	 1.286E+02	-1.138E+01
  19.115	 2.680E+01	-6.102E+01	 1.041E+00	-1.890E-01	 1.264E+01	 5.526E-01	 2.569E+00	 8.133E-03	 1.051E+01	 5.659E-01	 6.790E-01	 5.973E+01	-6.102E+01	 3.745E+01	 9.769E+00	-1.131E+02	 7.677E+02	 1.943E+02	-1.669E+02	 1.315E+02	-1.425E+01	 1.284E+02	-1.136E+01
  19.185	 2.680E+01	-6.102E+01	 1.098E+00	-1.765E-01	 1.329E+01	 4.493E-01	 2.669E+00	-1.180E-01	 1.049E+01	 9.249E-01	 9.322E-01	 8.200E+01	-6.102E+01	 3.903E+01	 1.521E+01	-1.793E+02	 8.042E+02	 1.670E+02	-1.941E+02	 1.322E+02	-1.485E+01	 1.288E+02	-1.156E+01
  19.255	 2.680E+01	-6.102E+01	 1.163E+00	-1.673E-01	 1.386E+01	 2.380E-01	 2.726E+00	-2.258E-01	 1.048E+01	 1.048E+00	 9.998E-01	 8.794E+01	-6.102E+01	 4.135E+01	 2.024E+01	-2.416E+02	 8.508E+02	 1.364E+02	-2.175E+02	 1.333E+02	-1.578E+01	 1.300E+02	-1.198E+01
  19.323	 2.680E+01	-6.102E+01	 1.234E+00	-1.626E-01	 1.399E+01	 8.513E-02	 2.830E+00	-3.340E-01	 1.047E+01	 1.124E+00	 1.201E+00	 1.057E+02	-6.102E+01	 4.415E+01	 2.463E+01	-2.956E+02	 9.037E+02	 1.041E+02	-2.358E+02	 1.343E+02	-1.685E+01	 1.319E+02	-1.293E+01
  19.393	 2.680E+01	-6.102E+01	 1.312E+00	-1.628E-01	 1.411E+01	 5.465E-02	 2.889E+00	-3.988E-01	 1.047E+01	 1.265E+00	 1.245E+00	 1.095E+02	-6.102E+01	 4.736E+01	 2.856E+01	-3.430E+02	 9.634E+02	 6.842E+01	-2.497E+02	 1.354E+02	-1.814E+01	 1.337E+02	-1.453E+01
  19.463	 2.680E+01	-6.102E+01	 1.394E+00	-1.683E-01	 1.421E+01	 1.185E-01	 2.875E+00	-3.704E-01	 1.047E+01	 1.249E+00	 1.302E+00	 1.145E+02	-6.102E+01	 5.071E+01	 3.163E+01	-3.788E+02	 1.025E+03	 3.142E+01	-2.579E+02	 1.360E+02	-1.953E+01	 1.348E+02	-1.672E+01
  19.533	 2.680E+01	-6.102E+01	 1.474E+00	-1.788E-01	 1.424E+01	 2.564E-01	 2.773E+00	-2.617E-01	 1.048E+01	 1.143E+00	 1.068E+00	 9.395E+01	-6.102E+01	 5.399E+01	 3.379E+01	-4.018E+02	 1.086E+03	-5.986E+00	-2.600E+02	 1.358E+02	-2.105E+01	 1.349E+02	-1.925E+01
  19.600	 2.680E+01	-6.102E+01	 1.546E+00	-1.930E-01	 1.417E+01	 4.786E-01	 2.716E+00	-1.316E-01	 1.047E+01	 9.506E-01	 9.876E-01	 8.687E+01	-6.102E+01	 5.678E+01	 3.490E+01	-4.108E+02	 1.140E+03	-4.205E+01	-2.561E+02	 1.347E+02	-2.242E+01	 1.341E+02	-2.198E+01
  19.670	 2.680E+01	-6.102E+01	 1.610E+00	-2.105E-01	 1.393E+01	 7.928E-01	 2.727E+00	-5.654E-02	 1.047E+01	 7.899E-01	 8.180E-01	 7.196E+01	-6.102E+01	 5.894E+01	 3.518E+01	-4.081E+02	 1.184E+03	-7.845E+01	-2.465E+02	 1.330E+02	-2.382E+01	 1.318E+02	-2.456E+01
  19.740	 2.680E+01	-6.102E+01	 1.659E+00	-2.287E-01	 1.340E+01	 9.029E-01	 2.480E+00	-1.046E-02	 1.046E+01	 4.889E-01	 5.295E-01	 4.658E+01	-6.102E+01	 6.009E+01	 3.457E+01	-3.942E+02	 1.213E+03	-1.134E+02	-2.313E+02	 1.307E+02	-2.524E+01	 1.283E+02	-2.648E+01
  19.810	 2.680E+01	-6.102E+01	 1.689E+00	-2.467E-01	 1.281E+01	 1.086E+00	 2.236E+00	-2.036E-02	 1.044E+01	 6.205E-01	 5.799E-01	 5.101E+01	-6.102E+01	 6.027E+01	 3.324E+01	-3.700E+02	 1.223E+03	-1.461E+02	-2.114E+02	 1.284E+02	-2.639E+01	 1.241E+02	-2.791E+01
  19.880	 2.680E+01	-6.102E+01	 1.694E+00	-2.631E-01	 1.270E+01	 1.191E+00	 2.135E+00	 1.535E-02	 1.042E+01	 6.064E-01	 5.060E-01	 4.451E+01	-6.102E+01	 5.969E+01	 3.104E+01	-3.351E+02	 1.217E+03	-1.750E+02	-1.872E+02	 1.264E+02	-2.722E+01	 1.202E+02	-2.885E+01
  19.948	 2.680E+01	-6.102E+01	 1.675E+00	-2.759E-01	 1.258E+01	 1.280E+00	 2.083E+00	-1.761E-02	 1.041E+01	 6.871E-01	 6.315E-01	 5.555E+01	-6.102E+01	 5.841E+01	 2.805E+01	-2.953E+02	 1.194E+03	-2.000E+02	-1.602E+02	 1.245E+02	-2.765E+01	 1.180E+02	-2.942E+01
