
These predictions were generated by FAST (v7.00.01a-bjj, 5-Nov-2010) on 02-Nov-2010 at 11:26:45.
The aerodynamic calculations were made by AeroDyn (v13.00.00a-bjj, 31-Mar-2010).

 FAST certification Test #06: AOC 15/50 with many DOFs with gen start loss of grid and tip-brake shutdown.

    Time	TipDxb3	TipDyb3	TipRDxb3	TipRDyb3	Spn5ALxb1	Spn5ALyb1	RotSpeed	LSSGagV	HSShftV	RootFxb3	RootFyb3	RootMEdg3	RootMFlp3	Spn4MLxb1	Spn4MLyb1	LSSGagFxs	LSSGagFys	LSSGagFzs	LSShftTq	HSShftTq	GenTq	LSShftPwr	HSShftPwr	GenPwr
   (sec)	(m)	(m)	(deg)	(deg)	(m/sec^2)	(m/sec^2)	(rpm)	(rpm)	(rpm)	(kN)	(kN)	(kN·m)	(kN·m)	(kN·m)	(kN·m)	(kN)	(kN)	(kN)	(kN·m)	(kN·m)	(kN·m)	(kW)	(kW)	(kW)
   5.000	 4.999E-03	 5.421E-03	-7.652E-02	 8.474E-02	-3.727E-03	-1.352E-01	 1.016E+00	 1.016E+00	 2.870E+01	 3.089E-01	 1.353E+00	-3.932E+00	 1.108E+00	 6.668E-02	 1.043E-01	 1.145E+00	 1.604E-04	-6.668E+00	 1.709E-01	 6.049E-03	 0.000E+00	 1.818E-02	 1.818E-02	 0.000E+00
   5.050	 4.993E-03	 5.430E-03	-7.665E-02	 8.460E-02	 8.696E-05	-1.346E-01	 1.026E+00	 1.026E+00	 2.899E+01	 3.093E-01	 1.355E+00	-3.938E+00	 1.108E+00	 6.815E-02	 1.042E-01	 1.144E+00	 1.652E-04	-6.669E+00	 1.711E-01	 6.058E-03	 0.000E+00	 1.839E-02	 1.839E-02	 0.000E+00
   5.100	 4.983E-03	 5.437E-03	-7.675E-02	 8.434E-02	 2.211E-02	-1.348E-01	 1.036E+00	 1.036E+00	 2.928E+01	 3.096E-01	 1.356E+00	-3.943E+00	 1.107E+00	 6.961E-02	 1.034E-01	 1.141E+00	 9.585E-05	-6.668E+00	 1.708E-01	 6.047E-03	 0.000E+00	 1.854E-02	 1.854E-02	 0.000E+00
   5.150	 4.996E-03	 5.446E-03	-7.687E-02	 8.460E-02	 3.077E-02	-1.354E-01	 1.047E+00	 1.047E+00	 2.957E+01	 3.104E-01	 1.358E+00	-3.949E+00	 1.110E+00	 7.107E-02	 1.031E-01	 1.141E+00	 1.572E-04	-6.668E+00	 1.704E-01	 6.034E-03	 0.000E+00	 1.868E-02	 1.868E-02	 0.000E+00
   5.200	 5.027E-03	 5.452E-03	-7.695E-02	 8.523E-02	 1.589E-02	-1.356E-01	 1.057E+00	 1.057E+00	 2.985E+01	 3.115E-01	 1.360E+00	-3.954E+00	 1.114E+00	 7.254E-02	 1.037E-01	 1.143E+00	 1.596E-04	-6.668E+00	 1.706E-01	 6.038E-03	 0.000E+00	 1.888E-02	 1.888E-02	 0.000E+00
   5.250	 5.045E-03	 5.459E-03	-7.705E-02	 8.560E-02	 3.067E-04	-1.352E-01	 1.067E+00	 1.067E+00	 3.014E+01	 3.124E-01	 1.362E+00	-3.960E+00	 1.117E+00	 7.404E-02	 1.043E-01	 1.144E+00	 1.702E-04	-6.668E+00	 1.710E-01	 6.053E-03	 0.000E+00	 1.911E-02	 1.911E-02	 0.000E+00
   5.300	 5.042E-03	 5.466E-03	-7.716E-02	 8.550E-02	 5.487E-03	-1.348E-01	 1.077E+00	 1.077E+00	 3.043E+01	 3.129E-01	 1.364E+00	-3.965E+00	 1.118E+00	 7.557E-02	 1.042E-01	 1.143E+00	 1.492E-04	-6.668E+00	 1.712E-01	 6.059E-03	 0.000E+00	 1.931E-02	 1.931E-02	 0.000E+00
   5.350	 5.039E-03	 5.473E-03	-7.726E-02	 8.539E-02	 2.249E-02	-1.350E-01	 1.087E+00	 1.087E+00	 3.072E+01	 3.134E-01	 1.366E+00	-3.970E+00	 1.118E+00	 7.709E-02	 1.035E-01	 1.141E+00	 1.119E-04	-6.668E+00	 1.709E-01	 6.049E-03	 0.000E+00	 1.946E-02	 1.946E-02	 0.000E+00
   5.400	 5.055E-03	 5.480E-03	-7.736E-02	 8.570E-02	 2.723E-02	-1.355E-01	 1.098E+00	 1.098E+00	 3.101E+01	 3.142E-01	 1.367E+00	-3.975E+00	 1.121E+00	 7.860E-02	 1.034E-01	 1.141E+00	 1.582E-04	-6.668E+00	 1.706E-01	 6.040E-03	 0.000E+00	 1.962E-02	 1.962E-02	 0.000E+00
   5.450	 5.082E-03	 5.486E-03	-7.744E-02	 8.625E-02	 1.475E-02	-1.356E-01	 1.108E+00	 1.108E+00	 3.130E+01	 3.153E-01	 1.369E+00	-3.980E+00	 1.125E+00	 8.014E-02	 1.039E-01	 1.143E+00	 1.536E-04	-6.668E+00	 1.708E-01	 6.045E-03	 0.000E+00	 1.981E-02	 1.981E-02	 0.000E+00
   5.500	 5.097E-03	 5.493E-03	-7.753E-02	 8.655E-02	 3.992E-03	-1.352E-01	 1.118E+00	 1.118E+00	 3.159E+01	 3.162E-01	 1.371E+00	-3.985E+00	 1.128E+00	 8.170E-02	 1.043E-01	 1.144E+00	 1.727E-04	-6.668E+00	 1.711E-01	 6.058E-03	 0.000E+00	 2.004E-02	 2.004E-02	 0.000E+00
   5.550	 5.097E-03	 5.499E-03	-7.763E-02	 8.651E-02	 9.630E-03	-1.349E-01	 1.128E+00	 1.128E+00	 3.188E+01	 3.167E-01	 1.372E+00	-3.990E+00	 1.129E+00	 8.328E-02	 1.042E-01	 1.143E+00	 1.384E-04	-6.668E+00	 1.712E-01	 6.061E-03	 0.000E+00	 2.023E-02	 2.023E-02	 0.000E+00
   5.600	 5.099E-03	 5.506E-03	-7.772E-02	 8.652E-02	 2.256E-02	-1.351E-01	 1.139E+00	 1.139E+00	 3.217E+01	 3.173E-01	 1.374E+00	-3.994E+00	 1.130E+00	 8.485E-02	 1.037E-01	 1.142E+00	 1.272E-04	-6.668E+00	 1.710E-01	 6.053E-03	 0.000E+00	 2.039E-02	 2.039E-02	 0.000E+00
   5.650	 5.117E-03	 5.512E-03	-7.781E-02	 8.686E-02	 2.470E-02	-1.355E-01	 1.149E+00	 1.149E+00	 3.245E+01	 3.182E-01	 1.376E+00	-3.999E+00	 1.133E+00	 8.643E-02	 1.036E-01	 1.142E+00	 1.537E-04	-6.668E+00	 1.708E-01	 6.047E-03	 0.000E+00	 2.055E-02	 2.055E-02	 0.000E+00
   5.700	 5.141E-03	 5.517E-03	-7.788E-02	 8.734E-02	 1.449E-02	-1.356E-01	 1.159E+00	 1.159E+00	 3.274E+01	 3.193E-01	 1.377E+00	-4.004E+00	 1.137E+00	 8.802E-02	 1.040E-01	 1.143E+00	 1.545E-04	-6.668E+00	 1.710E-01	 6.053E-03	 0.000E+00	 2.075E-02	 2.075E-02	 0.000E+00
   5.750	 5.155E-03	 5.523E-03	-7.796E-02	 8.760E-02	 7.300E-03	-1.353E-01	 1.169E+00	 1.169E+00	 3.303E+01	 3.201E-01	 1.379E+00	-4.008E+00	 1.139E+00	 8.964E-02	 1.043E-01	 1.143E+00	 1.687E-04	-6.668E+00	 1.712E-01	 6.062E-03	 0.000E+00	 2.097E-02	 2.097E-02	 0.000E+00
   5.800	 5.158E-03	 5.529E-03	-7.804E-02	 8.762E-02	 1.283E-02	-1.351E-01	 1.180E+00	 1.180E+00	 3.332E+01	 3.208E-01	 1.380E+00	-4.012E+00	 1.140E+00	 9.127E-02	 1.042E-01	 1.142E+00	 1.351E-04	-6.668E+00	 1.713E-01	 6.063E-03	 0.000E+00	 2.116E-02	 2.116E-02	 0.000E+00
   5.850	 5.164E-03	 5.535E-03	-7.813E-02	 8.772E-02	 2.251E-02	-1.353E-01	 1.190E+00	 1.190E+00	 3.361E+01	 3.215E-01	 1.382E+00	-4.017E+00	 1.142E+00	 9.289E-02	 1.038E-01	 1.142E+00	 1.378E-04	-6.668E+00	 1.711E-01	 6.057E-03	 0.000E+00	 2.132E-02	 2.132E-02	 0.000E+00
   5.900	 5.183E-03	 5.540E-03	-7.820E-02	 8.808E-02	 2.300E-02	-1.356E-01	 1.200E+00	 1.200E+00	 3.390E+01	 3.225E-01	 1.383E+00	-4.021E+00	 1.145E+00	 9.453E-02	 1.038E-01	 1.142E+00	 1.489E-04	-6.668E+00	 1.710E-01	 6.054E-03	 0.000E+00	 2.149E-02	 2.149E-02	 0.000E+00
   5.950	 5.205E-03	 5.545E-03	-7.826E-02	 8.851E-02	 1.483E-02	-1.356E-01	 1.210E+00	 1.210E+00	 3.419E+01	 3.235E-01	 1.384E+00	-4.025E+00	 1.149E+00	 9.617E-02	 1.041E-01	 1.143E+00	 1.571E-04	-6.668E+00	 1.712E-01	 6.059E-03	 0.000E+00	 2.169E-02	 2.169E-02	 0.000E+00
   6.000	 5.218E-03	 5.550E-03	-7.833E-02	 8.875E-02	 1.023E-02	-1.353E-01	 1.221E+00	 1.221E+00	 3.448E+01	 3.244E-01	 1.386E+00	-4.028E+00	 1.151E+00	 9.784E-02	 1.043E-01	 1.143E+00	 1.627E-04	-6.668E+00	 1.714E-01	 6.066E-03	 0.000E+00	 2.190E-02	 2.190E-02	 0.000E+00
   6.050	 5.127E-03	 6.832E-03	-9.630E-02	 8.904E-02	-7.576E-03	-2.586E+00	 1.346E+00	 1.561E+00	 4.411E+01	 3.253E-01	 1.589E+00	-4.851E+00	 1.163E+00	 2.644E-02	 1.045E-01	 1.159E+00	 1.127E-04	-6.668E+00	-2.445E+00	-8.656E-02	-2.554E-01	-3.446E-01	-3.998E-01	-1.779E+04
   6.100	 4.650E-03	 7.408E-03	-1.044E-01	 7.963E-02	 1.883E-01	-3.609E+00	 1.573E+00	 1.815E+00	 5.128E+01	 3.178E-01	 1.661E+00	-5.172E+00	 1.120E+00	-4.378E-03	 9.706E-02	 1.140E+00	 2.456E-04	-6.668E+00	-3.452E+00	-1.222E-01	-2.564E-01	-5.687E-01	-6.561E-01	-1.779E+04
   6.150	 4.254E-03	 7.521E-03	-1.060E-01	 7.119E-02	 3.608E-01	-3.835E+00	 1.855E+00	 2.044E+00	 5.774E+01	 3.119E-01	 1.659E+00	-5.209E+00	 1.082E+00	-1.251E-02	 9.077E-02	 1.120E+00	 5.520E-05	-6.668E+00	-3.551E+00	-1.257E-01	-2.573E-01	-6.897E-01	-7.600E-01	-1.779E+04
   6.200	 4.451E-03	 7.469E-03	-1.053E-01	 7.532E-02	 2.865E-01	-3.793E+00	 2.143E+00	 2.273E+00	 6.422E+01	 3.171E-01	 1.645E+00	-5.175E+00	 1.107E+00	-1.072E-02	 9.426E-02	 1.132E+00	 2.367E-04	-6.668E+00	-3.416E+00	-1.209E-01	-2.582E-01	-7.667E-01	-8.132E-01	-1.778E+04
   6.250	 4.946E-03	 7.384E-03	-1.041E-01	 8.578E-02	 1.002E-01	-3.664E+00	 2.425E+00	 2.509E+00	 7.089E+01	 3.275E-01	 1.637E+00	-5.139E+00	 1.162E+00	-3.628E-03	 1.019E-01	 1.159E+00	 1.172E-04	-6.668E+00	-3.281E+00	-1.161E-01	-2.592E-01	-8.330E-01	-8.621E-01	-1.778E+04
   6.300	 5.083E-03	 7.335E-03	-1.034E-01	 8.847E-02	 7.639E-02	-3.551E+00	 2.696E+00	 2.752E+00	 7.775E+01	 3.307E-01	 1.637E+00	-5.120E+00	 1.176E+00	 4.531E-03	 1.030E-01	 1.165E+00	 1.406E-04	-6.668E+00	-3.207E+00	-1.135E-01	-2.601E-01	-9.056E-01	-9.244E-01	-1.778E+04
   6.350	 4.766E-03	 7.333E-03	-1.034E-01	 8.148E-02	 2.419E-01	-3.490E+00	 2.961E+00	 3.001E+00	 8.476E+01	 3.254E-01	 1.639E+00	-5.115E+00	 1.141E+00	 1.121E-02	 9.690E-02	 1.145E+00	 1.629E-04	-6.668E+00	-3.184E+00	-1.127E-01	-2.612E-01	-9.874E-01	-1.000E+00	-1.778E+04
   6.400	 4.531E-03	 7.345E-03	-1.035E-01	 7.632E-02	 3.625E-01	-3.476E+00	 3.224E+00	 3.253E+00	 9.189E+01	 3.224E-01	 1.640E+00	-5.116E+00	 1.119E+00	 1.598E-02	 9.265E-02	 1.132E+00	 1.069E-04	-6.668E+00	-3.178E+00	-1.125E-01	-2.622E-01	-1.073E+00	-1.082E+00	-1.777E+04
   6.450	 4.744E-03	 7.340E-03	-1.035E-01	 8.074E-02	 2.870E-01	-3.484E+00	 3.487E+00	 3.507E+00	 9.909E+01	 3.287E-01	 1.640E+00	-5.117E+00	 1.148E+00	 1.980E-02	 9.574E-02	 1.145E+00	 2.322E-04	-6.668E+00	-3.168E+00	-1.121E-01	-2.632E-01	-1.157E+00	-1.164E+00	-1.777E+04
   6.500	 5.112E-03	 7.324E-03	-1.032E-01	 8.844E-02	 1.578E-01	-3.487E+00	 3.750E+00	 3.765E+00	 1.064E+02	 3.376E-01	 1.639E+00	-5.116E+00	 1.191E+00	 2.404E-02	 1.010E-01	 1.167E+00	 1.198E-04	-6.668E+00	-3.154E+00	-1.116E-01	-2.643E-01	-1.239E+00	-1.243E+00	-1.777E+04
   6.550	 5.150E-03	 7.320E-03	-1.032E-01	 8.912E-02	 1.786E-01	-3.485E+00	 4.014E+00	 4.024E+00	 1.137E+02	 3.397E-01	 1.638E+00	-5.114E+00	 1.195E+00	 2.899E-02	 1.005E-01	 1.167E+00	 1.680E-04	-6.668E+00	-3.146E+00	-1.114E-01	-2.654E-01	-1.322E+00	-1.326E+00	-1.777E+04
   6.600	 4.878E-03	 7.330E-03	-1.033E-01	 8.313E-02	 3.273E-01	-3.484E+00	 4.277E+00	 4.285E+00	 1.210E+02	 3.360E-01	 1.638E+00	-5.114E+00	 1.167E+00	 3.442E-02	 9.506E-02	 1.150E+00	 1.231E-04	-6.668E+00	-3.151E+00	-1.115E-01	-2.665E-01	-1.411E+00	-1.414E+00	-1.776E+04
   6.650	 4.739E-03	 7.336E-03	-1.034E-01	 7.998E-02	 4.110E-01	-3.493E+00	 4.540E+00	 4.547E+00	 1.285E+02	 3.356E-01	 1.638E+00	-5.114E+00	 1.156E+00	 3.984E-02	 9.198E-02	 1.142E+00	 1.468E-04	-6.668E+00	-3.164E+00	-1.120E-01	-2.676E-01	-1.505E+00	-1.507E+00	-1.776E+04
   6.700	 4.957E-03	 7.325E-03	-1.033E-01	 8.451E-02	 3.469E-01	-3.509E+00	 4.805E+00	 4.811E+00	 1.359E+02	 3.422E-01	 1.637E+00	-5.112E+00	 1.185E+00	 4.519E-02	 9.473E-02	 1.154E+00	 2.037E-04	-6.668E+00	-3.176E+00	-1.124E-01	-2.688E-01	-1.598E+00	-1.600E+00	-1.776E+04
   6.750	 5.252E-03	 7.305E-03	-1.030E-01	 9.068E-02	 2.635E-01	-3.522E+00	 5.071E+00	 5.076E+00	 1.434E+02	 3.499E-01	 1.635E+00	-5.107E+00	 1.220E+00	 5.075E-02	 9.843E-02	 1.170E+00	 1.374E-04	-6.668E+00	-3.185E+00	-1.127E-01	-2.699E-01	-1.691E+00	-1.693E+00	-1.776E+04
   6.800	 5.276E-03	 7.291E-03	-1.028E-01	 9.095E-02	 3.028E-01	-3.535E+00	 5.338E+00	 5.342E+00	 1.509E+02	 3.523E-01	 1.631E+00	-5.097E+00	 1.224E+00	 5.655E-02	 9.736E-02	 1.169E+00	 1.585E-04	-6.668E+00	-3.193E+00	-1.130E-01	-2.711E-01	-1.785E+00	-1.787E+00	-1.775E+04
   6.850	 5.093E-03	 7.281E-03	-1.027E-01	 8.677E-02	 4.280E-01	-3.548E+00	 5.606E+00	 5.610E+00	 1.585E+02	 3.511E-01	 1.626E+00	-5.084E+00	 1.206E+00	 6.259E-02	 9.289E-02	 1.157E+00	 5.658E-05	-6.668E+00	-3.206E+00	-1.135E-01	-2.723E-01	-1.882E+00	-1.884E+00	-1.775E+04
   6.900	 5.053E-03	 7.260E-03	-1.024E-01	 8.565E-02	 4.909E-01	-3.565E+00	 5.874E+00	 5.879E+00	 1.661E+02	 3.530E-01	 1.620E+00	-5.067E+00	 1.207E+00	 6.867E-02	 9.087E-02	 1.153E+00	 7.468E-06	-6.668E+00	-3.221E+00	-1.140E-01	-2.735E-01	-1.981E+00	-1.983E+00	-1.775E+04
   6.950	 5.282E-03	 7.221E-03	-1.018E-01	 9.029E-02	 4.442E-01	-3.583E+00	 6.145E+00	 6.149E+00	 1.737E+02	 3.602E-01	 1.612E+00	-5.046E+00	 1.237E+00	 7.485E-02	 9.314E-02	 1.165E+00	-1.369E-04	-6.668E+00	-3.233E+00	-1.144E-01	-2.747E-01	-2.080E+00	-2.082E+00	-1.774E+04
   7.000	 5.534E-03	 7.172E-03	-1.011E-01	 9.533E-02	 3.931E-01	-3.598E+00	 6.417E+00	 6.421E+00	 1.814E+02	 3.677E-01	 1.602E+00	-5.019E+00	 1.268E+00	 8.116E-02	 9.541E-02	 1.177E+00	-3.602E-04	-6.669E+00	-3.243E+00	-1.148E-01	-2.759E-01	-2.179E+00	-2.180E+00	-1.774E+04
   7.050	 5.555E-03	 7.125E-03	-1.005E-01	 9.539E-02	 4.456E-01	-3.612E+00	 6.690E+00	 6.694E+00	 1.891E+02	 3.708E-01	 1.591E+00	-4.985E+00	 1.272E+00	 8.759E-02	 9.367E-02	 1.175E+00	-5.899E-04	-6.669E+00	-3.254E+00	-1.152E-01	-2.772E-01	-2.280E+00	-2.281E+00	-1.774E+04
   7.100	 5.436E-03	 7.075E-03	-9.979E-02	 9.242E-02	 5.555E-01	-3.627E+00	 6.964E+00	 6.968E+00	 1.968E+02	 3.714E-01	 1.576E+00	-4.946E+00	 1.263E+00	 9.402E-02	 8.959E-02	 1.165E+00	-8.672E-04	-6.669E+00	-3.269E+00	-1.157E-01	-2.784E-01	-2.384E+00	-2.385E+00	-1.773E+04
   7.150	 5.450E-03	 7.010E-03	-9.889E-02	 9.228E-02	 6.076E-01	-3.646E+00	 7.239E+00	 7.244E+00	 2.046E+02	 3.749E-01	 1.560E+00	-4.901E+00	 1.270E+00	 1.003E-01	 8.767E-02	 1.162E+00	-1.170E-03	-6.669E+00	-3.285E+00	-1.163E-01	-2.797E-01	-2.490E+00	-2.492E+00	-1.773E+04
   7.200	 5.668E-03	 6.925E-03	-9.770E-02	 9.652E-02	 5.763E-01	-3.664E+00	 7.516E+00	 7.520E+00	 2.125E+02	 3.824E-01	 1.541E+00	-4.847E+00	 1.298E+00	 1.066E-01	 8.901E-02	 1.168E+00	-1.934E-03	-6.669E+00	-3.298E+00	-1.167E-01	-2.810E-01	-2.596E+00	-2.597E+00	-1.773E+04
   7.250	 5.878E-03	 6.829E-03	-9.634E-02	 1.005E-01	 5.564E-01	-3.679E+00	 7.795E+00	 7.799E+00	 2.203E+02	 3.895E-01	 1.519E+00	-4.785E+00	 1.324E+00	 1.129E-01	 8.993E-02	 1.168E+00	-3.272E-03	-6.671E+00	-3.310E+00	-1.172E-01	-2.823E-01	-2.702E+00	-2.704E+00	-1.772E+04
   7.300	 5.909E-03	 6.725E-03	-9.489E-02	 1.007E-01	 6.172E-01	-3.691E+00	 8.074E+00	 8.079E+00	 2.282E+02	 3.932E-01	 1.494E+00	-4.713E+00	 1.330E+00	 1.191E-01	 8.770E-02	 1.135E+00	-6.797E-03	-6.674E+00	-3.326E+00	-1.177E-01	-2.837E-01	-2.812E+00	-2.813E+00	-1.772E+04
   7.350	 5.859E-03	 6.608E-03	-9.327E-02	 9.907E-02	 7.132E-01	-3.696E+00	 8.354E+00	 8.360E+00	 2.362E+02	 3.954E-01	 1.465E+00	-4.629E+00	 1.328E+00	 1.254E-01	 8.410E-02	 1.043E+00	-1.307E-02	-6.683E+00	-3.348E+00	-1.185E-01	-2.850E-01	-2.929E+00	-2.931E+00	-1.772E+04
   7.400	 5.933E-03	 6.474E-03	-9.139E-02	 1.001E-01	 7.570E-01	-3.706E+00	 8.635E+00	 8.641E+00	 2.441E+02	 4.002E-01	 1.433E+00	-4.538E+00	 1.340E+00	 1.314E-01	 8.246E-02	 1.067E+00	-1.271E-02	-6.682E+00	-3.374E+00	-1.194E-01	-2.864E-01	-3.051E+00	-3.053E+00	-1.771E+04
   7.450	 6.153E-03	 6.338E-03	-8.948E-02	 1.043E-01	 7.426E-01	-3.754E+00	 8.919E+00	 8.924E+00	 2.521E+02	 4.079E-01	 1.400E+00	-4.447E+00	 1.368E+00	 1.357E-01	 8.305E-02	 1.133E+00	-5.400E-03	-6.676E+00	-3.386E+00	-1.199E-01	-2.878E-01	-3.163E+00	-3.165E+00	-1.771E+04
   7.500	 6.341E-03	 6.188E-03	-8.739E-02	 1.077E-01	 7.490E-01	-3.804E+00	 9.206E+00	 9.209E+00	 2.602E+02	 4.147E-01	 1.363E+00	-4.346E+00	 1.391E+00	 1.397E-01	 8.287E-02	 1.237E+00	 2.999E-03	-6.665E+00	-3.380E+00	-1.197E-01	-2.892E-01	-3.259E+00	-3.260E+00	-1.771E+04
   7.550	 6.384E-03	 6.004E-03	-8.480E-02	 1.080E-01	 8.212E-01	-3.802E+00	 9.495E+00	 9.497E+00	 2.683E+02	 4.185E-01	 1.320E+00	-4.218E+00	 1.398E+00	 1.449E-01	 8.010E-02	 1.264E+00	 2.526E-03	-6.662E+00	-3.379E+00	-1.196E-01	-2.906E-01	-3.359E+00	-3.360E+00	-1.770E+04
   7.600	 6.395E-03	 5.799E-03	-8.195E-02	 1.074E-01	 9.056E-01	-3.793E+00	 9.784E+00	 9.787E+00	 2.765E+02	 4.219E-01	 1.271E+00	-4.076E+00	 1.401E+00	 1.498E-01	 7.667E-02	 1.193E+00	-1.423E-03	-6.670E+00	-3.399E+00	-1.203E-01	-2.921E-01	-3.482E+00	-3.483E+00	-1.770E+04
   7.650	 6.518E-03	 5.583E-03	-7.892E-02	 1.094E-01	 9.421E-01	-3.804E+00	 1.007E+01	 1.008E+01	 2.847E+02	 4.275E-01	 1.220E+00	-3.928E+00	 1.417E+00	 1.534E-01	 7.499E-02	 1.148E+00	-3.713E-03	-6.677E+00	-3.430E+00	-1.214E-01	-2.936E-01	-3.617E+00	-3.619E+00	-1.769E+04
   7.700	 6.728E-03	 5.365E-03	-7.586E-02	 1.131E-01	 9.450E-01	-3.854E+00	 1.036E+01	 1.037E+01	 2.929E+02	 4.347E-01	 1.167E+00	-3.779E+00	 1.442E+00	 1.551E-01	 7.458E-02	 1.200E+00	-1.571E-04	-6.671E+00	-3.447E+00	-1.220E-01	-2.951E-01	-3.741E+00	-3.743E+00	-1.769E+04
   7.750	 6.881E-03	 5.126E-03	-7.252E-02	 1.156E-01	 9.754E-01	-3.893E+00	 1.066E+01	 1.066E+01	 3.012E+02	 4.404E-01	 1.109E+00	-3.615E+00	 1.459E+00	 1.565E-01	 7.304E-02	 1.271E+00	 2.399E-03	-6.663E+00	-3.449E+00	-1.221E-01	-2.966E-01	-3.850E+00	-3.851E+00	-1.769E+04
   7.800	 6.922E-03	 4.856E-03	-6.874E-02	 1.157E-01	 1.055E+00	-3.897E+00	 1.096E+01	 1.096E+01	 3.096E+02	 4.437E-01	 1.044E+00	-3.427E+00	 1.464E+00	 1.582E-01	 6.950E-02	 1.267E+00	 9.827E-04	-6.663E+00	-3.455E+00	-1.223E-01	-2.982E-01	-3.964E+00	-3.966E+00	-1.768E+04
   7.850	 6.961E-03	 4.565E-03	-6.467E-02	 1.157E-01	 1.135E+00	-3.896E+00	 1.125E+01	 1.126E+01	 3.180E+02	 4.470E-01	 9.740E-01	-3.225E+00	 1.468E+00	 1.591E-01	 6.589E-02	 1.212E+00	-6.435E-04	-6.670E+00	-3.478E+00	-1.231E-01	-2.998E-01	-4.098E+00	-4.100E+00	-1.768E+04
   7.900	 7.104E-03	 4.260E-03	-6.040E-02	 1.179E-01	 1.171E+00	-3.915E+00	 1.155E+01	 1.156E+01	 3.265E+02	 4.521E-01	 9.013E-01	-3.016E+00	 1.484E+00	 1.585E-01	 6.393E-02	 1.194E+00	-8.745E-04	-6.675E+00	-3.506E+00	-1.241E-01	-3.014E-01	-4.240E+00	-4.242E+00	-1.767E+04
   7.950	 7.298E-03	 3.950E-03	-5.605E-02	 1.212E-01	 1.187E+00	-3.962E+00	 1.185E+01	 1.186E+01	 3.350E+02	 4.578E-01	 8.261E-01	-2.802E+00	 1.504E+00	 1.560E-01	 6.273E-02	 1.238E+00	 8.822E-04	-6.670E+00	-3.521E+00	-1.247E-01	-3.030E-01	-4.370E+00	-4.372E+00	-1.767E+04
   8.000	 7.415E-03	 3.618E-03	-5.140E-02	 1.228E-01	 1.239E+00	-3.994E+00	 1.216E+01	 1.216E+01	 3.435E+02	 4.617E-01	 7.456E-01	-2.572E+00	 1.514E+00	 1.528E-01	 6.015E-02	 1.286E+00	 5.321E-04	-6.664E+00	-3.527E+00	-1.248E-01	-3.047E-01	-4.489E+00	-4.491E+00	-1.766E+04
   8.050	 7.447E-03	 3.261E-03	-4.640E-02	 1.226E-01	 1.326E+00	-4.003E+00	 1.246E+01	 1.246E+01	 3.521E+02	 4.637E-01	 6.594E-01	-2.323E+00	 1.514E+00	 1.492E-01	 5.613E-02	 1.281E+00	-4.716E-04	-6.665E+00	-3.537E+00	-1.252E-01	-3.064E-01	-4.615E+00	-4.617E+00	-1.766E+04
   8.100	 7.501E-03	 2.884E-03	-4.112E-02	 1.229E-01	 1.402E+00	-4.009E+00	 1.277E+01	 1.277E+01	 3.608E+02	 4.658E-01	 5.691E-01	-2.061E+00	 1.517E+00	 1.445E-01	 5.253E-02	 1.242E+00	-9.091E-05	-6.671E+00	-3.560E+00	-1.260E-01	-3.081E-01	-4.759E+00	-4.761E+00	-1.765E+04
   8.150	 7.641E-03	 2.499E-03	-3.572E-02	 1.250E-01	 1.440E+00	-4.035E+00	 1.307E+01	 1.308E+01	 3.695E+02	 4.690E-01	 4.765E-01	-1.795E+00	 1.528E+00	 1.378E-01	 5.041E-02	 1.234E+00	 1.100E-03	-6.673E+00	-3.584E+00	-1.269E-01	-3.099E-01	-4.907E+00	-4.910E+00	-1.765E+04
   8.200	 7.790E-03	 2.108E-03	-3.024E-02	 1.274E-01	 1.474E+00	-4.079E+00	 1.339E+01	 1.339E+01	 3.783E+02	 4.720E-01	 3.818E-01	-1.525E+00	 1.539E+00	 1.291E-01	 4.841E-02	 1.274E+00	 9.853E-04	-6.668E+00	-3.599E+00	-1.274E-01	-3.117E-01	-5.045E+00	-5.047E+00	-1.764E+04
   8.250	 7.856E-03	 1.702E-03	-2.455E-02	 1.280E-01	 1.543E+00	-4.109E+00	 1.370E+01	 1.370E+01	 3.871E+02	 4.727E-01	 2.832E-01	-1.242E+00	 1.539E+00	 1.195E-01	 4.508E-02	 1.312E+00	-1.019E-03	-6.665E+00	-3.607E+00	-1.277E-01	-3.135E-01	-5.174E+00	-5.176E+00	-1.764E+04
   8.300	 7.857E-03	 1.280E-03	-1.864E-02	 1.271E-01	 1.634E+00	-4.121E+00	 1.401E+01	 1.402E+01	 3.960E+02	 4.718E-01	 1.810E-01	-9.465E-01	 1.531E+00	 1.089E-01	 4.083E-02	 1.304E+00	-1.191E-03	-6.666E+00	-3.621E+00	-1.282E-01	-3.153E-01	-5.314E+00	-5.315E+00	-1.763E+04
   8.350	 7.884E-03	 8.486E-04	-1.260E-02	 1.269E-01	 1.708E+00	-4.133E+00	 1.433E+01	 1.434E+01	 4.050E+02	 4.708E-01	 7.689E-02	-6.457E-01	 1.526E+00	 9.682E-02	 3.720E-02	 1.276E+00	 8.930E-04	-6.671E+00	-3.644E+00	-1.290E-01	-3.172E-01	-5.469E+00	-5.471E+00	-1.763E+04
   8.400	 7.964E-03	 4.186E-04	-6.565E-03	 1.278E-01	 1.756E+00	-4.164E+00	 1.465E+01	 1.465E+01	 4.140E+02	 4.704E-01	-2.728E-02	-3.466E-01	 1.526E+00	 8.258E-02	 3.461E-02	 1.278E+00	 2.187E-03	-6.671E+00	-3.668E+00	-1.298E-01	-3.191E-01	-5.627E+00	-5.629E+00	-1.762E+04
   8.450	 8.030E-03	-8.349E-06	-5.766E-04	 1.286E-01	 1.809E+00	-4.206E+00	 1.497E+01	 1.498E+01	 4.231E+02	 4.689E-01	-1.314E-01	-4.866E-02	 1.522E+00	 6.650E-02	 3.197E-02	 1.315E+00	 4.199E-04	-6.668E+00	-3.683E+00	-1.304E-01	-3.211E-01	-5.774E+00	-5.776E+00	-1.762E+04
   8.500	 8.015E-03	-4.377E-04	 5.438E-03	 1.276E-01	 1.890E+00	-4.233E+00	 1.529E+01	 1.530E+01	 4.322E+02	 4.650E-01	-2.363E-01	 2.527E-01	 1.508E+00	 4.930E-02	 2.826E-02	 1.342E+00	-1.918E-03	-6.666E+00	-3.695E+00	-1.308E-01	-3.231E-01	-5.918E+00	-5.920E+00	-1.761E+04
   8.550	 7.945E-03	-8.661E-04	 1.144E-02	 1.255E-01	 1.986E+00	-4.250E+00	 1.562E+01	 1.563E+01	 4.414E+02	 4.596E-01	-3.410E-01	 5.547E-01	 1.488E+00	 3.096E-02	 2.402E-02	 1.335E+00	-1.121E-03	-6.668E+00	-3.713E+00	-1.314E-01	-3.251E-01	-6.073E+00	-6.075E+00	-1.761E+04
   8.600	 7.896E-03	-1.287E-03	 1.735E-02	 1.239E-01	 2.065E+00	-4.269E+00	 1.595E+01	 1.595E+01	 4.507E+02	 4.539E-01	-4.436E-01	 8.507E-01	 1.469E+00	 1.111E-02	 2.055E-02	 1.317E+00	 1.670E-03	-6.670E+00	-3.737E+00	-1.323E-01	-3.272E-01	-6.242E+00	-6.244E+00	-1.760E+04
   8.650	 7.880E-03	-1.691E-03	 2.301E-02	 1.232E-01	 2.125E+00	-4.304E+00	 1.628E+01	 1.628E+01	 4.600E+02	 4.481E-01	-5.424E-01	 1.134E+00	 1.453E+00	-1.064E-02	 1.801E-02	 1.326E+00	 2.349E-03	-6.670E+00	-3.760E+00	-1.331E-01	-3.293E-01	-6.410E+00	-6.413E+00	-1.759E+04
   8.700	 7.833E-03	-2.075E-03	 2.839E-02	 1.218E-01	 2.193E+00	-4.345E+00	 1.661E+01	 1.662E+01	 4.694E+02	 4.409E-01	-6.371E-01	 1.405E+00	 1.432E+00	-3.382E-02	 1.530E-02	 1.358E+00	-3.023E-04	-6.668E+00	-3.777E+00	-1.337E-01	-3.315E-01	-6.570E+00	-6.572E+00	-1.759E+04
   8.750	 7.706E-03	-2.440E-03	 3.351E-02	 1.189E-01	 2.286E+00	-4.373E+00	 1.695E+01	 1.695E+01	 4.789E+02	 4.314E-01	-7.274E-01	 1.664E+00	 1.401E+00	-5.780E-02	 1.184E-02	 1.378E+00	-2.719E-03	-6.668E+00	-3.791E+00	-1.342E-01	-3.337E-01	-6.729E+00	-6.731E+00	-1.758E+04
   8.800	 7.532E-03	-2.782E-03	 3.831E-02	 1.151E-01	 2.388E+00	-4.395E+00	 1.729E+01	 1.729E+01	 4.885E+02	 4.202E-01	-8.123E-01	 1.908E+00	 1.365E+00	-8.258E-02	 8.237E-03	 1.368E+00	-1.941E-03	-6.669E+00	-3.812E+00	-1.349E-01	-3.359E-01	-6.900E+00	-6.902E+00	-1.758E+04
   8.850	 7.373E-03	-3.094E-03	 4.268E-02	 1.117E-01	 2.463E+00	-4.418E+00	 1.763E+01	 1.763E+01	 4.981E+02	 4.085E-01	-8.896E-01	 2.131E+00	 1.329E+00	-1.083E-01	 5.537E-03	 1.340E+00	-1.753E-03	-6.672E+00	-3.838E+00	-1.359E-01	-3.382E-01	-7.084E+00	-7.087E+00	-1.757E+04
   8.900	 7.229E-03	-3.371E-03	 4.658E-02	 1.087E-01	 2.021E+00	-4.398E+00	 1.797E+01	 1.798E+01	 5.078E+02	 3.964E-01	-9.586E-01	 2.329E+00	 1.295E+00	-1.330E-01	 2.870E-02	 1.239E+00	-1.020E-02	-6.683E+00	-3.867E+00	-1.369E-01	-3.405E-01	-7.277E+00	-7.280E+00	-1.756E+04
   8.950	 7.043E-03	-3.598E-03	 4.977E-02	 1.051E-01	 2.870E+00	-4.571E+00	 1.831E+01	 1.832E+01	 5.176E+02	 3.828E-01	-1.016E+00	 2.493E+00	 1.255E+00	-1.650E-01	-5.746E-02	 1.411E+00	-5.328E-03	-6.669E+00	-3.891E+00	-1.377E-01	-3.429E-01	-7.462E+00	-7.465E+00	-1.755E+04
   9.000	 6.783E-03	-3.770E-03	 5.219E-02	 9.995E-02	 2.713E+00	-4.539E+00	 1.866E+01	 1.867E+01	 5.274E+02	 3.672E-01	-1.063E+00	 2.623E+00	 1.207E+00	-1.904E-01	-2.107E-02	 1.434E+00	-1.406E-03	-6.668E+00	-3.904E+00	-1.382E-01	-3.454E-01	-7.630E+00	-7.633E+00	-1.755E+04
   9.050	 6.483E-03	-3.907E-03	 5.411E-02	 9.412E-02	 2.701E+00	-4.519E+00	 1.902E+01	 1.902E+01	 5.374E+02	 3.501E-01	-1.099E+00	 2.727E+00	 1.153E+00	-2.157E-01	 4.301E-02	 1.405E+00	 1.012E-03	-6.671E+00	-3.916E+00	-1.386E-01	-3.479E-01	-7.798E+00	-7.801E+00	-1.754E+04
   9.100	 6.194E-03	-3.988E-03	 5.526E-02	 8.870E-02	 2.492E+00	-4.563E+00	 1.937E+01	 1.938E+01	 5.474E+02	 3.329E-01	-1.122E+00	 2.792E+00	 1.102E+00	-2.432E-01	 1.786E-02	 1.441E+00	 3.230E-03	-6.665E+00	-3.936E+00	-1.393E-01	-3.504E-01	-7.985E+00	-7.987E+00	-1.753E+04
   9.150	 5.915E-03	-4.018E-03	 5.569E-02	 8.359E-02	 2.972E+00	-4.673E+00	 1.973E+01	 1.973E+01	 5.575E+02	 3.154E-01	-1.132E+00	 2.820E+00	 1.051E+00	-2.724E-01	-3.334E-02	 1.460E+00	-1.268E-03	-6.666E+00	-3.966E+00	-1.404E-01	-3.531E-01	-8.194E+00	-8.197E+00	-1.752E+04
   9.200	 5.596E-03	-3.968E-03	 5.500E-02	 7.783E-02	 3.796E+00	-4.685E+00	 2.009E+01	 2.010E+01	 5.677E+02	 2.969E-01	-1.124E+00	 2.795E+00	 9.972E-01	-2.968E-01	-2.779E-02	 1.433E+00	-6.213E-04	-6.673E+00	-3.995E+00	-1.414E-01	-3.557E-01	-8.404E+00	-8.407E+00	-1.752E+04
   9.250	 5.213E-03	-3.848E-03	 5.331E-02	 7.083E-02	 3.562E+00	-4.685E+00	 2.045E+01	 2.046E+01	 5.780E+02	 2.768E-01	-1.101E+00	 2.723E+00	 9.362E-01	-3.197E-01	 1.719E-03	 1.455E+00	 9.916E-04	-6.672E+00	-4.016E+00	-1.421E-01	-3.585E-01	-8.601E+00	-8.604E+00	-1.751E+04
   9.300	 4.800E-03	-3.669E-03	 5.081E-02	 6.334E-02	 2.770E+00	-4.735E+00	 2.082E+01	 2.083E+01	 5.884E+02	 2.562E-01	-1.062E+00	 2.610E+00	 8.732E-01	-3.431E-01	 7.678E-03	 1.517E+00	-5.367E-04	-6.665E+00	-4.034E+00	-1.428E-01	-3.613E-01	-8.794E+00	-8.797E+00	-1.750E+04
   9.350	 4.409E-03	-3.423E-03	 4.737E-02	 5.642E-02	 3.014E+00	-4.778E+00	 2.119E+01	 2.120E+01	 5.988E+02	 2.360E-01	-1.007E+00	 2.449E+00	 8.138E-01	-3.639E-01	-2.100E-03	 1.519E+00	-4.711E-04	-6.664E+00	-4.058E+00	-1.437E-01	-3.642E-01	-9.006E+00	-9.009E+00	-1.749E+04
   9.400	 4.034E-03	-3.108E-03	 4.297E-02	 5.001E-02	 4.000E+00	-4.836E+00	 2.156E+01	 2.157E+01	 6.094E+02	 2.162E-01	-9.349E-01	 2.239E+00	 7.569E-01	-3.823E-01	-1.308E-02	 1.484E+00	 1.170E-03	-6.671E+00	-4.090E+00	-1.448E-01	-3.671E-01	-9.236E+00	-9.240E+00	-1.748E+04
   9.450	 3.629E-03	-2.709E-03	 3.738E-02	 4.306E-02	 4.254E+00	-4.869E+00	 2.194E+01	 2.195E+01	 6.201E+02	 1.962E-01	-8.439E-01	 1.973E+00	 6.982E-01	-3.972E-01	-1.923E-02	 1.504E+00	 2.024E-03	-6.672E+00	-4.120E+00	-1.458E-01	-3.701E-01	-9.466E+00	-9.470E+00	-1.747E+04
   9.500	 3.176E-03	-2.242E-03	 3.083E-02	 3.521E-02	 3.726E+00	-4.909E+00	 2.232E+01	 2.233E+01	 6.308E+02	 1.757E-01	-7.366E-01	 1.659E+00	 6.361E-01	-4.097E-01	-8.299E-03	 1.559E+00	-6.837E-04	-6.669E+00	-4.144E+00	-1.467E-01	-3.732E-01	-9.687E+00	-9.690E+00	-1.746E+04
   9.550	 2.721E-03	-1.712E-03	 2.341E-02	 2.735E-02	 3.530E+00	-4.936E+00	 2.271E+01	 2.272E+01	 6.417E+02	 1.559E-01	-6.138E-01	 1.302E+00	 5.759E-01	-4.182E-01	 1.096E-02	 1.577E+00	-1.557E-03	-6.666E+00	-4.168E+00	-1.475E-01	-3.764E-01	-9.910E+00	-9.914E+00	-1.745E+04
   9.600	 2.308E-03	-1.125E-03	 1.519E-02	 2.045E-02	 4.009E+00	-4.983E+00	 2.310E+01	 2.310E+01	 6.527E+02	 1.377E-01	-4.764E-01	 9.040E-01	 5.228E-01	-4.231E-01	 9.544E-03	 1.565E+00	-6.921E-05	-6.667E+00	-4.197E+00	-1.486E-01	-3.797E-01	-1.015E+01	-1.016E+01	-1.744E+04
   9.650	 1.928E-03	-4.813E-04	 6.171E-03	 1.428E-02	 4.541E+00	-5.056E+00	 2.349E+01	 2.350E+01	 6.638E+02	 1.213E-01	-3.249E-01	 4.647E-01	 4.756E-01	-4.249E-01	-9.699E-03	 1.572E+00	 1.515E-03	-6.670E+00	-4.231E+00	-1.498E-01	-3.830E-01	-1.041E+01	-1.041E+01	-1.743E+04
   9.700	 1.540E-03	 2.224E-04	-3.692E-03	 7.937E-03	 4.649E+00	-5.097E+00	 2.388E+01	 2.389E+01	 6.750E+02	 1.048E-01	-1.599E-01	-1.514E-02	 4.298E-01	-4.214E-01	-1.199E-02	 1.601E+00	 1.353E-03	-6.670E+00	-4.262E+00	-1.509E-01	-3.865E-01	-1.066E+01	-1.066E+01	-1.742E+04
   9.750	 1.136E-03	 9.653E-04	-1.411E-02	 1.238E-03	 4.458E+00	-5.131E+00	 2.428E+01	 2.429E+01	 6.863E+02	 8.610E-02	 1.515E-02	-5.221E-01	 3.842E-01	-4.134E-01	 9.221E-03	 1.626E+00	-7.224E-04	-6.669E+00	-4.290E+00	-1.519E-01	-3.900E-01	-1.091E+01	-1.091E+01	-1.740E+04
   9.800	 7.631E-04	 1.736E-03	-2.491E-02	-4.737E-03	 4.402E+00	-5.167E+00	 2.469E+01	 2.470E+01	 6.977E+02	 5.272E-02	 1.989E-01	-1.051E+00	 3.292E-01	-4.009E-01	 2.277E-02	 1.624E+00	-5.294E-03	-6.670E+00	-4.320E+00	-1.529E-01	-3.937E-01	-1.117E+01	-1.117E+01	-1.739E+04
   9.850	 1.233E-04	 2.543E-03	-3.567E-02	 5.323E-03	 4.737E+00	-5.221E+00	 2.510E+01	 2.511E+01	 7.093E+02	-5.872E-02	 3.885E-01	-1.595E+00	-2.458E-03	-3.845E-01	 1.376E-02	 1.531E+00	-1.066E-02	-6.682E+00	-4.359E+00	-1.543E-01	-3.974E-01	-1.146E+01	-1.146E+01	-1.738E+04
   9.900	-9.947E-04	 3.378E-03	-4.797E-02	-3.794E-02	 5.221E+00	-5.302E+00	 2.551E+01	 2.552E+01	 7.209E+02	 2.435E-02	 5.733E-01	-2.142E+00	 1.408E-01	-3.644E-01	 2.882E-03	 1.630E+00	-6.061E-04	-6.674E+00	-4.398E+00	-1.557E-01	-4.013E-01	-1.175E+01	-1.175E+01	-1.737E+04
   9.950	-2.958E-04	 4.122E-03	-5.879E-02	-3.861E-02	 5.386E+00	-5.357E+00	 2.593E+01	 2.594E+01	 7.327E+02	 1.102E-01	 7.589E-01	-2.685E+00	 4.387E-01	-3.392E-01	 8.827E-03	 1.744E+00	 2.859E-03	-6.663E+00	-4.427E+00	-1.567E-01	-4.052E-01	-1.202E+01	-1.203E+01	-1.735E+04
  10.000	 8.712E-04	 4.828E-03	-6.814E-02	 6.418E-03	 5.227E+00	-5.398E+00	 2.635E+01	 2.636E+01	 7.447E+02	 7.086E-02	 9.414E-01	-3.210E+00	 3.796E-01	-3.097E-01	 2.365E-02	 1.741E+00	 5.714E-04	-6.667E+00	-4.453E+00	-1.576E-01	-4.093E-01	-1.229E+01	-1.229E+01	-1.734E+04
  10.050	 3.376E-04	 5.569E-03	-7.835E-02	 3.865E-03	 5.235E+00	-5.450E+00	 2.678E+01	 2.679E+01	 7.568E+02	 2.975E-02	 1.114E+00	-3.710E+00	 2.290E-01	-2.771E-01	 2.976E-02	 1.723E+00	-4.261E-04	-6.671E+00	-4.487E+00	-1.588E-01	-4.136E-01	-1.258E+01	-1.259E+01	-1.732E+04
  10.100	-1.205E-03	 6.325E-03	-8.945E-02	-4.373E-02	 5.640E+00	-5.506E+00	 2.721E+01	 2.722E+01	 7.690E+02	 5.845E-02	 1.277E+00	-4.191E+00	 2.414E-01	-2.415E-01	 2.349E-02	 1.756E+00	-1.865E-03	-6.670E+00	-4.531E+00	-1.604E-01	-4.179E-01	-1.291E+01	-1.292E+01	-1.731E+04
  10.150	-1.435E-03	 6.931E-03	-9.802E-02	-5.026E-02	 6.078E+00	-5.586E+00	 2.765E+01	 2.766E+01	 7.813E+02	 7.286E-02	 1.420E+00	-4.606E+00	 2.758E-01	-2.041E-01	 1.669E-02	 1.778E+00	 1.274E-03	-6.668E+00	-4.577E+00	-1.620E-01	-4.224E-01	-1.325E+01	-1.326E+01	-1.729E+04
  10.200	-1.818E-04	 7.391E-03	-1.041E-01	-1.169E-02	 6.173E+00	-5.650E+00	 2.809E+01	 2.810E+01	 7.939E+02	 6.535E-02	 1.543E+00	-4.961E+00	 3.135E-01	-1.647E-01	 2.041E-02	 1.794E+00	 2.594E-03	-6.668E+00	-4.614E+00	-1.633E-01	-4.271E-01	-1.357E+01	-1.358E+01	-1.728E+04
  10.250	 6.248E-04	 7.773E-03	-1.095E-01	 4.226E-03	 6.093E+00	-5.708E+00	 2.854E+01	 2.855E+01	 8.065E+02	 9.188E-02	 1.642E+00	-5.249E+00	 4.250E-01	-1.244E-01	 3.077E-02	 1.845E+00	-1.849E-04	-6.668E+00	-4.648E+00	-1.645E-01	-4.319E-01	-1.389E+01	-1.390E+01	-1.726E+04
  10.300	 1.073E-04	 8.106E-03	-1.144E-01	-1.543E-02	 6.234E+00	-5.767E+00	 2.899E+01	 2.900E+01	 8.194E+02	 1.206E-01	 1.713E+00	-5.464E+00	 4.724E-01	-8.410E-02	 3.388E-02	 1.883E+00	-2.839E-03	-6.669E+00	-4.690E+00	-1.660E-01	-4.369E-01	-1.424E+01	-1.425E+01	-1.724E+04
  10.350	-5.617E-04	 8.323E-03	-1.174E-01	-2.785E-02	 6.639E+00	-5.840E+00	 2.945E+01	 2.947E+01	 8.324E+02	 1.110E-01	 1.755E+00	-5.590E+00	 3.955E-01	-4.525E-02	 2.555E-02	 1.873E+00	 8.151E-04	-6.671E+00	-4.741E+00	-1.678E-01	-4.420E-01	-1.462E+01	-1.463E+01	-1.722E+04
  10.400	-1.632E-04	 8.341E-03	-1.176E-01	-1.526E-02	 6.995E+00	-5.929E+00	 2.992E+01	 2.993E+01	 8.456E+02	 1.126E-01	 1.762E+00	-5.610E+00	 4.069E-01	-9.022E-03	 1.726E-02	 1.881E+00	 3.359E-03	-6.668E+00	-4.791E+00	-1.696E-01	-4.474E-01	-1.501E+01	-1.502E+01	-1.720E+04
  10.450	 9.882E-04	 8.192E-03	-1.155E-01	 4.746E-03	 7.107E+00	-6.001E+00	 3.039E+01	 3.040E+01	 8.589E+02	 1.583E-01	 1.735E+00	-5.537E+00	 5.864E-01	 2.452E-02	 1.871E-02	 1.942E+00	-2.933E-04	-6.667E+00	-4.836E+00	-1.712E-01	-4.529E-01	-1.539E+01	-1.540E+01	-1.718E+04
  10.500	 1.714E-03	 7.912E-03	-1.117E-01	 1.540E-02	 7.132E+00	-6.071E+00	 3.087E+01	 3.088E+01	 8.725E+02	 1.954E-01	 1.672E+00	-5.359E+00	 7.131E-01	 5.380E-02	 2.381E-02	 1.988E+00	-4.374E-03	-6.670E+00	-4.881E+00	-1.728E-01	-4.587E-01	-1.578E+01	-1.579E+01	-1.716E+04
  10.550	 1.575E-03	 7.525E-03	-1.062E-01	 1.330E-02	 7.334E+00	-6.132E+00	 3.136E+01	 3.137E+01	 8.862E+02	 1.929E-01	 1.573E+00	-5.080E+00	 6.747E-01	 7.813E-02	 2.074E-02	 1.903E+00	-9.907E-03	-6.681E+00	-4.938E+00	-1.748E-01	-4.646E-01	-1.621E+01	-1.622E+01	-1.713E+04
  10.600	 1.353E-03	 7.007E-03	-9.898E-02	 7.867E-03	 7.723E+00	-6.232E+00	 3.185E+01	 3.186E+01	 9.002E+02	 1.927E-01	 1.442E+00	-4.705E+00	 6.420E-01	 9.504E-02	 9.471E-03	 2.039E+00	 8.386E-04	-6.666E+00	-5.000E+00	-1.770E-01	-4.708E-01	-1.668E+01	-1.668E+01	-1.711E+04
  10.650	 1.921E-03	 6.319E-03	-8.940E-02	 1.518E-02	 8.058E+00	-6.343E+00	 3.235E+01	 3.236E+01	 9.143E+02	 2.218E-01	 1.277E+00	-4.236E+00	 7.403E-01	 1.045E-01	 3.783E-04	 2.066E+00	 1.506E-03	-6.666E+00	-5.056E+00	-1.790E-01	-4.773E-01	-1.713E+01	-1.714E+01	-1.708E+04
  10.700	 2.998E-03	 5.481E-03	-7.764E-02	 3.519E-02	 8.199E+00	-6.421E+00	 3.286E+01	 3.287E+01	 9.286E+02	 2.520E-01	 1.083E+00	-3.679E+00	 8.668E-01	 1.073E-01	-1.414E-03	 2.086E+00	-5.938E-04	-6.672E+00	-5.107E+00	-1.808E-01	-4.840E-01	-1.757E+01	-1.758E+01	-1.705E+04
  10.750	 3.563E-03	 4.571E-03	-6.484E-02	 4.666E-02	 8.300E+00	-6.517E+00	 3.337E+01	 3.339E+01	 9.432E+02	 2.595E-01	 8.655E-01	-3.056E+00	 8.983E-01	 1.012E-01	-2.250E-03	 2.157E+00	 7.037E-05	-6.668E+00	-5.164E+00	-1.828E-01	-4.911E-01	-1.805E+01	-1.806E+01	-1.703E+04
  10.800	 3.347E-03	 3.617E-03	-5.150E-02	 3.950E-02	 8.571E+00	-6.595E+00	 3.390E+01	 3.391E+01	 9.581E+02	 2.557E-01	 6.292E-01	-2.378E+00	 8.596E-01	 8.721E-02	-9.876E-03	 2.195E+00	-7.656E-04	-6.668E+00	-5.234E+00	-1.853E-01	-4.984E-01	-1.858E+01	-1.859E+01	-1.699E+04
  10.850	 3.177E-03	 2.619E-03	-3.758E-02	 3.222E-02	 8.968E+00	-6.716E+00	 3.443E+01	 3.445E+01	 9.732E+02	 2.556E-01	 3.823E-01	-1.673E+00	 8.413E-01	 6.337E-02	-2.197E-02	 2.188E+00	 2.289E-03	-6.669E+00	-5.309E+00	-1.879E-01	-5.061E-01	-1.914E+01	-1.915E+01	-1.696E+04
  10.900	 3.664E-03	 1.574E-03	-2.291E-02	 4.095E-02	 9.287E+00	-6.837E+00	 3.497E+01	 3.499E+01	 9.885E+02	 2.596E-01	 1.314E-01	-9.536E-01	 8.735E-01	 3.132E-02	-3.075E-02	 2.231E+00	 1.445E-03	-6.669E+00	-5.381E+00	-1.905E-01	-5.141E-01	-1.970E+01	-1.972E+01	-1.693E+04
  10.950	 4.316E-03	 5.385E-04	-8.334E-03	 5.405E-02	 9.465E+00	-6.943E+00	 3.552E+01	 3.554E+01	 1.004E+03	 2.602E-01	-1.149E-01	-2.471E-01	 9.075E-01	-7.902E-03	-3.376E-02	 2.323E+00	-2.068E-03	-6.668E+00	-5.450E+00	-1.929E-01	-5.225E-01	-2.027E+01	-2.028E+01	-1.689E+04
  11.000	 4.330E-03	-4.070E-04	 4.914E-03	 5.255E-02	 9.659E+00	-7.056E+00	 3.608E+01	 3.610E+01	 1.020E+03	 2.489E-01	-3.469E-01	 4.155E-01	 8.774E-01	-5.407E-02	-3.653E-02	 2.371E+00	-1.216E-03	-6.669E+00	-5.527E+00	-1.957E-01	-5.313E-01	-2.089E+01	-2.090E+01	-1.685E+04
  11.050	 3.754E-03	-1.231E-03	 1.644E-02	 3.887E-02	 1.000E+01	-7.168E+00	 3.665E+01	 3.668E+01	 1.036E+03	 2.233E-01	-5.556E-01	 1.010E+00	 7.816E-01	-1.055E-01	-4.400E-02	 2.371E+00	 2.723E-03	-6.670E+00	-5.617E+00	-1.988E-01	-5.406E-01	-2.156E+01	-2.157E+01	-1.681E+04
  11.100	 3.320E-03	-1.923E-03	 2.614E-02	 2.979E-02	 1.041E+01	-7.316E+00	 3.723E+01	 3.726E+01	 1.053E+03	 1.945E-01	-7.310E-01	 1.508E+00	 6.916E-01	-1.620E-01	-5.324E-02	 2.393E+00	-1.091E-03	-6.669E+00	-5.712E+00	-2.022E-01	-5.503E-01	-2.227E+01	-2.229E+01	-1.676E+04
  11.150	 3.339E-03	-2.477E-03	 3.394E-02	 3.067E-02	 1.125E+01	-7.479E+00	 3.783E+01	 3.785E+01	 1.069E+03	 1.726E-01	-8.666E-01	 1.894E+00	 6.523E-01	-2.209E-01	-4.646E-02	 2.431E+00	-8.423E-03	-6.676E+00	-5.810E+00	-2.057E-01	-5.605E-01	-2.301E+01	-2.303E+01	-1.671E+04
  11.200	 3.320E-03	-2.803E-03	 3.854E-02	 3.067E-02	 1.138E+01	-7.573E+00	 3.843E+01	 3.846E+01	 1.086E+03	 1.496E-01	-9.506E-01	 2.124E+00	 6.127E-01	-2.769E-01	-5.703E-02	 2.533E+00	 3.327E-04	-6.673E+00	-5.905E+00	-2.090E-01	-5.713E-01	-2.376E+01	-2.378E+01	-1.666E+04
  11.250	 2.728E-03	-2.892E-03	 3.979E-02	 1.927E-02	 1.096E+01	-7.760E+00	 3.905E+01	 3.908E+01	 1.104E+03	 1.121E-01	-9.817E-01	 2.204E+00	 5.048E-01	-3.349E-01	-6.997E-02	 2.631E+00	 8.726E-04	-6.665E+00	-6.006E+00	-2.126E-01	-5.827E-01	-2.456E+01	-2.458E+01	-1.660E+04
  11.300	 1.760E-03	-2.717E-03	 3.734E-02	 9.069E-04	 1.145E+01	-7.906E+00	 3.968E+01	 3.971E+01	 1.122E+03	 6.491E-02	-9.528E-01	 2.110E+00	 3.545E-01	-3.863E-01	-5.527E-02	 2.657E+00	 8.888E-04	-6.666E+00	-6.121E+00	-2.167E-01	-5.948E-01	-2.543E+01	-2.545E+01	-1.654E+04
  11.350	 1.023E-03	-2.288E-03	 3.133E-02	-1.230E-02	 1.235E+01	-8.054E+00	 4.032E+01	 4.036E+01	 1.140E+03	 2.390E-02	-8.615E-01	 1.833E+00	 2.402E-01	-4.301E-01	-4.874E-02	 2.685E+00	 9.015E-04	-6.669E+00	-6.245E+00	-2.211E-01	-6.076E-01	-2.637E+01	-2.639E+01	-1.647E+04
  11.400	 6.655E-04	-1.641E-03	 2.228E-02	-1.733E-02	 1.272E+01	-8.291E+00	 4.098E+01	 4.102E+01	 1.159E+03	-7.688E-03	-7.111E-01	 1.390E+00	 1.754E-01	-4.680E-01	-6.551E-02	 2.772E+00	-1.591E-04	-6.673E+00	-6.374E+00	-2.256E-01	-6.212E-01	-2.735E+01	-2.738E+01	-1.640E+04
  11.450	 2.187E-04	-7.254E-04	 9.475E-03	-2.379E-02	 1.286E+01	-8.440E+00	 4.166E+01	 4.169E+01	 1.178E+03	-4.026E-02	-5.007E-01	 7.662E-01	 1.028E-01	-4.923E-01	-6.732E-02	 2.862E+00	 6.714E-04	-6.668E+00	-6.511E+00	-2.305E-01	-6.357E-01	-2.840E+01	-2.843E+01	-1.631E+04
  11.500	-6.718E-04	 4.040E-04	-6.359E-03	-3.940E-02	 1.328E+01	-8.647E+00	 4.235E+01	 4.239E+01	 1.197E+03	-7.994E-02	-2.415E-01	 4.981E-03	-1.501E-02	-5.057E-01	-4.567E-02	 2.912E+00	 7.080E-04	-6.669E+00	-6.661E+00	-2.358E-01	-6.511E-01	-2.954E+01	-2.957E+01	-1.622E+04
  11.550	-1.668E-03	 1.721E-03	-2.485E-02	-5.754E-02	 1.381E+01	-8.838E+00	 4.306E+01	 4.310E+01	 1.218E+03	-1.181E-01	 6.025E-02	-8.824E-01	-1.303E-01	-5.045E-01	-3.705E-02	 2.961E+00	-2.560E-04	-6.668E+00	-6.826E+00	-2.416E-01	-6.675E-01	-3.077E+01	-3.081E+01	-1.613E+04
  11.600	-2.235E-03	 3.132E-03	-4.464E-02	-6.674E-02	 1.432E+01	-9.098E+00	 4.378E+01	 4.383E+01	 1.238E+03	-1.628E-01	 3.917E-01	-1.849E+00	-1.992E-01	-4.917E-01	-4.785E-02	 3.021E+00	-4.523E-03	-6.672E+00	-7.003E+00	-2.479E-01	-6.850E-01	-3.211E+01	-3.214E+01	-1.602E+04
  11.650	-2.692E-03	 4.624E-03	-6.552E-02	-7.184E-02	 1.490E+01	-9.337E+00	 4.453E+01	 4.458E+01	 1.259E+03	-1.714E-01	 7.348E-01	-2.867E+00	-2.441E-01	-4.643E-01	-4.881E-02	 3.113E+00	-3.668E-03	-6.673E+00	-7.194E+00	-2.547E-01	-7.038E-01	-3.355E+01	-3.358E+01	-1.589E+04
  11.700	-2.862E-03	 6.026E-03	-8.506E-02	-6.904E-02	 1.542E+01	-9.596E+00	 4.529E+01	 4.535E+01	 1.281E+03	-1.858E-01	 1.068E+00	-3.837E+00	-2.926E-01	-4.247E-01	-3.356E-02	 3.186E+00	 4.403E-03	-6.670E+00	-7.391E+00	-2.616E-01	-7.239E-01	-3.505E+01	-3.510E+01	-1.575E+04
  11.750	-2.915E-03	 7.392E-03	-1.045E-01	-7.797E-02	 1.580E+01	-9.855E+00	 4.608E+01	 4.614E+01	 1.303E+03	-1.510E-01	 1.384E+00	-4.780E+00	-1.702E-01	-3.744E-01	-2.387E-02	 3.305E+00	-1.160E-03	-6.668E+00	-7.607E+00	-2.693E-01	-7.454E-01	-3.671E+01	-3.675E+01	-1.560E+04
  11.800	-2.980E-03	 8.569E-03	-1.211E-01	-8.045E-02	 1.632E+01	-1.016E+01	 4.689E+01	 4.696E+01	 1.327E+03	-1.368E-01	 1.657E+00	-5.588E+00	-1.213E-01	-3.177E-01	-2.784E-02	 3.401E+00	-2.112E-03	-6.668E+00	-7.846E+00	-2.777E-01	-7.686E-01	-3.853E+01	-3.858E+01	-1.542E+04
  11.850	-3.048E-03	 9.508E-03	-1.341E-01	-7.535E-02	 1.710E+01	-1.050E+01	 4.773E+01	 4.780E+01	 1.350E+03	-1.511E-01	 1.870E+00	-6.228E+00	-1.675E-01	-2.578E-01	-3.334E-02	 3.459E+00	 1.975E-03	-6.670E+00	-8.106E+00	-2.869E-01	-7.933E-01	-4.052E+01	-4.057E+01	-1.521E+04
  11.900	-2.941E-03	 1.016E-02	-1.433E-01	-7.448E-02	 1.782E+01	-1.081E+01	 4.860E+01	 4.867E+01	 1.375E+03	-1.344E-01	 2.011E+00	-6.666E+00	-1.178E-01	-1.965E-01	-3.360E-02	 3.551E+00	 2.749E-03	-6.670E+00	-8.383E+00	-2.967E-01	-8.198E-01	-4.266E+01	-4.272E+01	-1.498E+04
  11.950	-2.455E-03	 1.040E-02	-1.468E-01	-7.160E-02	 1.830E+01	-1.118E+01	 4.949E+01	 4.957E+01	 1.400E+03	-8.833E-02	 2.060E+00	-6.832E+00	 3.190E-02	-1.418E-01	-3.297E-02	 3.682E+00	-3.873E-04	-6.667E+00	-8.676E+00	-3.071E-01	-8.479E-01	-4.496E+01	-4.503E+01	-1.470E+04
  12.000	-1.727E-03	 1.028E-02	-1.452E-01	-5.870E-02	 1.884E+01	-1.156E+01	 5.041E+01	 5.050E+01	 1.427E+03	-5.745E-02	 2.019E+00	-6.751E+00	 1.418E-01	-9.581E-02	-3.710E-02	 3.792E+00	-1.149E-03	-6.672E+00	-8.985E+00	-3.181E-01	-8.775E-01	-4.744E+01	-4.751E+01	-1.438E+04
  12.050	-1.131E-03	 9.741E-03	-1.376E-01	-4.679E-02	 1.964E+01	-1.197E+01	 5.137E+01	 5.146E+01	 1.454E+03	-4.219E-02	 1.876E+00	-6.368E+00	 1.942E-01	-6.536E-02	-4.687E-02	 3.857E+00	-3.997E-03	-6.674E+00	-9.286E+00	-3.287E-01	-9.081E-01	-4.996E+01	-5.004E+01	-1.400E+04
  12.100	-7.212E-04	 8.869E-03	-1.255E-01	-4.413E-02	 2.052E+01	-1.237E+01	 5.236E+01	 5.245E+01	 1.482E+03	-1.717E-02	 1.653E+00	-5.754E+00	 2.684E-01	-4.968E-02	-6.055E-02	 4.010E+00	 1.122E-03	-6.669E+00	-9.629E+00	-3.408E-01	-9.390E-01	-5.280E+01	-5.289E+01	-1.355E+04
  12.150	-2.094E-04	 7.670E-03	-1.088E-01	-4.074E-02	 2.125E+01	-1.277E+01	 5.338E+01	 5.348E+01	 1.511E+03	 9.937E-03	 1.350E+00	-4.911E+00	 3.582E-01	-5.535E-02	-7.298E-02	 4.160E+00	 5.481E-04	-6.669E+00	-9.958E+00	-3.525E-01	-9.685E-01	-5.567E+01	-5.577E+01	-1.301E+04
  12.200	 4.605E-04	 6.204E-03	-8.823E-02	-3.034E-02	 2.192E+01	-1.317E+01	 5.444E+01	 5.453E+01	 1.541E+03	 1.991E-02	 9.866E-01	-3.889E+00	 4.107E-01	-8.314E-02	-8.216E-02	 4.312E+00	-2.477E-04	-6.669E+00	-1.024E+01	-3.624E-01	-9.938E-01	-5.837E+01	-5.847E+01	-1.236E+04
  12.250	 9.442E-04	 4.599E-03	-6.573E-02	-2.359E-02	 2.275E+01	-1.346E+01	 5.553E+01	 5.561E+01	 1.571E+03	 1.651E-02	 5.908E-01	-2.767E+00	 4.234E-01	-1.292E-01	-9.352E-02	 4.452E+00	 1.744E-03	-6.670E+00	-1.043E+01	-3.691E-01	-1.011E+00	-6.063E+01	-6.072E+01	-1.159E+04
  12.300	 1.025E-03	 2.941E-03	-4.257E-02	-2.749E-02	 2.371E+01	-1.364E+01	 5.663E+01	 5.670E+01	 1.602E+03	 5.323E-03	 1.895E-01	-1.609E+00	 4.049E-01	-1.911E-01	-1.096E-01	 4.598E+00	 6.989E-04	-6.670E+00	-1.046E+01	-3.703E-01	-1.012E+00	-6.204E+01	-6.212E+01	-1.070E+04
  12.350	 8.730E-04	 1.358E-03	-2.043E-02	-3.527E-02	 2.465E+01	-1.353E+01	 5.774E+01	 5.777E+01	 1.632E+03	-1.963E-02	-1.845E-01	-5.073E-01	 3.477E-01	-2.596E-01	-1.248E-01	 4.764E+00	 7.058E-04	-6.669E+00	-1.025E+01	-3.627E-01	-9.908E-01	-6.196E+01	-6.200E+01	-9.689E+03
  12.400	 6.970E-04	-1.020E-04	 3.288E-05	-4.069E-02	 2.675E+01	-1.334E+01	 5.884E+01	 5.881E+01	 1.661E+03	-6.010E-02	-5.020E-01	 4.818E-01	 2.565E-01	-3.371E-01	-1.273E-01	 4.898E+00	 1.284E-02	-6.675E+00	-9.655E+00	-3.418E-01	-9.380E-01	-5.949E+01	-5.946E+01	-8.617E+03
  12.450	 4.369E-04	-1.336E-03	 1.734E-02	-4.726E-02	 2.676E+01	-1.213E+01	 5.988E+01	 5.978E+01	 1.689E+03	-1.071E-01	-7.498E-01	 1.306E+00	 1.523E-01	-3.799E-01	-1.162E-01	 5.046E+00	-4.764E-04	-6.675E+00	-8.645E+00	-3.060E-01	-8.505E-01	-5.421E+01	-5.411E+01	-7.569E+03
  12.500	-6.758E-05	-2.214E-03	 2.963E-02	-5.918E-02	 2.694E+01	-1.082E+01	 6.084E+01	 6.064E+01	 1.713E+03	-1.575E-01	-8.912E-01	 1.867E+00	 3.396E-02	-4.164E-01	-1.449E-01	 5.250E+00	 1.694E-03	-6.668E+00	-7.185E+00	-2.544E-01	-7.330E-01	-4.578E+01	-4.563E+01	-6.640E+03
  12.550	-7.734E-04	-2.679E-03	 3.608E-02	-7.596E-02	 2.749E+01	-9.204E+00	 6.169E+01	 6.139E+01	 1.734E+03	-2.046E-01	-9.180E-01	 2.131E+00	-7.882E-02	-4.299E-01	-1.556E-01	 5.434E+00	-1.394E-03	-6.666E+00	-5.351E+00	-1.894E-01	-5.978E-01	-3.457E+01	-3.440E+01	-5.901E+03
  12.600	-1.314E-03	-2.668E-03	 3.592E-02	-8.649E-02	 2.857E+01	-7.339E+00	 6.241E+01	 6.203E+01	 1.752E+03	-2.508E-01	-8.174E-01	 2.047E+00	-1.800E-01	-4.121E-01	-1.283E-01	 5.537E+00	 9.227E-04	-6.671E+00	-3.344E+00	-1.184E-01	-4.592E-01	-2.186E+01	-2.172E+01	-5.370E+03
  12.650	-1.666E-03	-2.164E-03	 2.885E-02	-9.281E-02	 2.911E+01	-5.500E+00	 6.300E+01	 6.255E+01	 1.767E+03	-2.840E-01	-5.958E-01	 1.613E+00	-2.386E-01	-3.667E-01	-1.130E-01	 5.653E+00	 2.886E-03	-6.671E+00	-1.391E+00	-4.923E-02	-3.290E-01	-9.175E+00	-9.110E+00	-5.021E+03
  12.700	-2.059E-03	-1.220E-03	 1.559E-02	-1.006E-01	 2.910E+01	-3.890E+00	 6.345E+01	 6.298E+01	 1.779E+03	-3.103E-01	-2.778E-01	 8.814E-01	-2.733E-01	-2.994E-01	-1.200E-01	 5.777E+00	-1.546E-03	-6.670E+00	 3.494E-01	 1.237E-02	-2.139E-01	 2.321E+00	 2.304E+00	-4.814E+03
  12.750	-2.906E-03	 1.152E-04	-3.274E-03	-1.203E-01	 2.943E+01	-2.430E+00	 6.379E+01	 6.332E+01	 1.789E+03	-3.240E-01	 1.037E-01	-8.647E-02	-3.166E-01	-2.073E-01	-1.134E-01	 5.841E+00	-1.641E-02	-6.671E+00	 1.784E+00	 6.315E-02	-1.169E-01	 1.192E+01	 1.183E+01	-4.703E+03
  12.800	-3.319E-03	 1.293E-03	-1.975E-02	-1.254E-01	 3.000E+01	-1.444E+00	 6.403E+01	 6.359E+01	 1.796E+03	-3.250E-01	 4.584E-01	-9.581E-01	-3.475E-01	-1.061E-01	-9.128E-02	 5.858E+00	 9.711E-03	-6.670E+00	 2.951E+00	 1.044E-01	-3.770E-02	 1.978E+01	 1.965E+01	-4.654E+03
  12.850	-2.361E-03	 2.416E-03	-3.541E-02	-1.016E-01	 3.013E+01	-5.419E-01	 6.420E+01	 6.380E+01	 1.802E+03	-2.984E-01	 7.805E-01	-1.805E+00	-2.206E-01	 9.940E-03	-8.254E-02	 5.905E+00	-2.246E-04	-6.669E+00	 3.849E+00	 1.363E-01	 2.547E-02	 2.588E+01	 2.572E+01	-4.640E+03
  12.900	-1.340E-03	 3.149E-03	-4.578E-02	-8.425E-02	 2.996E+01	 8.066E-02	 6.432E+01	 6.397E+01	 1.807E+03	-2.404E-01	 9.971E-01	-2.363E+00	-1.990E-02	 1.237E-01	-8.559E-02	 5.974E+00	 4.602E-04	-6.673E+00	 4.522E+00	 1.601E-01	 7.479E-02	 3.046E+01	 3.029E+01	-4.644E+03
  12.950	-1.124E-03	 3.346E-03	-4.866E-02	-8.480E-02	 3.006E+01	 4.871E-01	 6.439E+01	 6.409E+01	 1.811E+03	-1.952E-01	 1.075E+00	-2.528E+00	 8.428E-02	 2.274E-01	-8.193E-02	 5.980E+00	-2.560E-03	-6.664E+00	 5.000E+00	 1.770E-01	 1.125E-01	 3.372E+01	 3.356E+01	-4.656E+03
  13.000	-9.612E-04	 3.105E-03	-4.530E-02	-8.269E-02	 3.030E+01	 9.096E-01	 6.444E+01	 6.419E+01	 1.813E+03	-1.656E-01	 1.019E+00	-2.354E+00	 1.319E-01	 3.191E-01	-7.700E-02	 5.942E+00	 3.209E-03	-6.679E+00	 5.327E+00	 1.886E-01	 1.407E-01	 3.594E+01	 3.581E+01	-4.671E+03
  13.050	 1.110E-04	 2.038E-03	-3.035E-02	-6.348E-02	 3.024E+01	 1.025E+00	 6.446E+01	 6.426E+01	 1.815E+03	-1.164E-01	 7.950E-01	-1.652E+00	 2.780E-01	 3.784E-01	-8.372E-02	 5.944E+00	-1.078E-02	-6.660E+00	 5.505E+00	 1.949E-01	 1.615E-01	 3.716E+01	 3.704E+01	-4.684E+03
  13.100	 1.789E-03	 6.144E-04	-1.045E-02	-3.525E-02	 3.004E+01	 1.197E+00	 6.447E+01	 6.431E+01	 1.817E+03	-4.667E-02	 4.610E-01	-6.971E-01	 5.159E-01	 4.104E-01	-9.523E-02	 5.962E+00	 4.904E-03	-6.682E+00	 5.655E+00	 2.002E-01	 1.764E-01	 3.818E+01	 3.808E+01	-4.695E+03
  13.150	 2.844E-03	-1.260E-03	 1.579E-02	-1.933E-02	 3.003E+01	 1.179E+00	 6.447E+01	 6.434E+01	 1.818E+03	-3.751E-03	 1.776E-02	 5.907E-01	 6.445E-01	 4.037E-01	-1.010E-01	 5.986E+00	 1.828E-03	-6.665E+00	 5.776E+00	 2.044E-01	 1.870E-01	 3.899E+01	 3.892E+01	-4.704E+03
  13.200	 2.942E-03	-3.296E-03	 4.435E-02	-2.011E-02	 3.009E+01	 1.355E+00	 6.447E+01	 6.437E+01	 1.818E+03	-2.677E-03	-4.673E-01	 2.002E+00	 6.123E-01	 3.738E-01	-1.079E-01	 5.992E+00	-4.022E-03	-6.677E+00	 5.843E+00	 2.068E-01	 1.944E-01	 3.944E+01	 3.938E+01	-4.710E+03
  13.250	 2.917E-03	-5.182E-03	 7.078E-02	-2.344E-02	 3.001E+01	 1.301E+00	 6.446E+01	 6.438E+01	 1.819E+03	-1.041E-02	-9.318E-01	 3.330E+00	 5.682E-01	 3.094E-01	-1.207E-01	 5.970E+00	 2.002E-03	-6.655E+00	 5.861E+00	 2.075E-01	 1.994E-01	 3.956E+01	 3.952E+01	-4.715E+03
  13.300	 3.334E-03	-7.022E-03	 9.657E-02	-1.826E-02	 2.989E+01	 1.370E+00	 6.445E+01	 6.439E+01	 1.819E+03	-1.225E-02	-1.356E+00	 4.583E+00	 5.815E-01	 2.294E-01	-1.316E-01	 5.953E+00	-1.460E-04	-6.684E+00	 5.855E+00	 2.072E-01	 2.025E-01	 3.951E+01	 3.948E+01	-4.717E+03
  13.350	 3.644E-03	-8.195E-03	 1.131E-01	-1.214E-02	 2.442E+01	 2.936E+00	 6.444E+01	 6.440E+01	 1.819E+03	-2.930E-02	-1.651E+00	 5.402E+00	 5.623E-01	 1.487E-01	-1.353E-01	 6.010E+00	 1.086E-02	-6.655E+00	 5.840E+00	 2.067E-01	 2.043E-01	 3.941E+01	 3.939E+01	-4.719E+03
  13.400	 3.001E-03	-8.939E-03	 1.236E-01	-2.325E-02	 3.052E+01	 1.156E+00	 6.443E+01	 6.440E+01	 1.819E+03	-7.979E-02	-1.829E+00	 5.927E+00	 4.087E-01	 3.517E-02	-1.424E-01	 5.941E+00	-8.497E-03	-6.687E+00	 5.821E+00	 2.061E-01	 2.052E-01	 3.928E+01	 3.926E+01	-4.720E+03
  13.450	 1.678E-03	-8.841E-03	 1.222E-01	-4.786E-02	 3.000E+01	 1.460E+00	 6.443E+01	 6.440E+01	 1.819E+03	-1.433E-01	-1.827E+00	 5.895E+00	 1.993E-01	-3.694E-02	-1.449E-01	 5.968E+00	 9.650E-03	-6.660E+00	 5.839E+00	 2.067E-01	 2.055E-01	 3.940E+01	 3.938E+01	-4.720E+03
  13.500	 6.184E-04	-8.249E-03	 1.139E-01	-6.696E-02	 2.940E+01	 1.155E+00	 6.442E+01	 6.440E+01	 1.819E+03	-1.956E-01	-1.679E+00	 5.492E+00	 4.558E-02	-1.105E-01	-1.300E-01	 5.985E+00	-1.191E-02	-6.677E+00	 5.826E+00	 2.062E-01	 2.056E-01	 3.931E+01	 3.930E+01	-4.720E+03
  13.550	 1.378E-04	-7.006E-03	 9.656E-02	-7.206E-02	 2.972E+01	 1.450E+00	 6.441E+01	 6.440E+01	 1.819E+03	-2.334E-01	-1.379E+00	 4.624E+00	-3.363E-02	-1.358E-01	-1.159E-01	 5.964E+00	 1.007E-02	-6.656E+00	 5.799E+00	 2.053E-01	 2.055E-01	 3.912E+01	 3.911E+01	-4.720E+03
  13.600	-4.282E-04	-5.303E-03	 7.275E-02	-7.815E-02	 3.027E+01	 1.177E+00	 6.441E+01	 6.440E+01	 1.819E+03	-2.684E-01	-9.730E-01	 3.448E+00	-1.155E-01	-1.501E-01	-1.199E-01	 5.948E+00	-5.183E-03	-6.680E+00	 5.775E+00	 2.044E-01	 2.053E-01	 3.895E+01	 3.895E+01	-4.720E+03
  13.650	-1.462E-03	-3.356E-03	 4.545E-02	-9.511E-02	 3.028E+01	 1.294E+00	 6.440E+01	 6.440E+01	 1.819E+03	-3.306E-01	-5.042E-01	 2.107E+00	-2.463E-01	-1.198E-01	-1.241E-01	 5.930E+00	 5.003E-03	-6.669E+00	 5.762E+00	 2.040E-01	 2.049E-01	 3.886E+01	 3.886E+01	-4.720E+03
  13.700	-3.229E-03	-1.168E-03	 1.481E-02	-1.250E-01	 2.993E+01	 1.370E+00	 6.441E+01	 6.440E+01	 1.819E+03	-3.541E-01	-2.069E-02	 6.588E-01	-4.388E-01	-6.449E-02	-1.028E-01	 5.933E+00	-2.081E-02	-6.681E+00	 5.795E+00	 2.051E-01	 2.044E-01	 3.908E+01	 3.908E+01	-4.719E+03
  13.750	-3.164E-03	 4.066E-04	-7.532E-03	-1.314E-01	 2.985E+01	 1.157E+00	 6.440E+01	 6.440E+01	 1.819E+03	-2.976E-01	 3.970E-01	-4.796E-01	-2.602E-01	 6.844E-03	-7.618E-02	 5.971E+00	 1.718E-02	-6.664E+00	 5.778E+00	 2.045E-01	 2.040E-01	 3.897E+01	 3.897E+01	-4.719E+03
  13.800	-1.275E-03	 1.911E-03	-2.846E-02	-8.605E-02	 3.011E+01	 1.427E+00	 6.440E+01	 6.440E+01	 1.819E+03	-2.474E-01	 7.634E-01	-1.567E+00	-2.302E-02	 1.085E-01	-7.703E-02	 5.978E+00	-1.548E-02	-6.672E+00	 5.749E+00	 2.035E-01	 2.037E-01	 3.877E+01	 3.877E+01	-4.719E+03
  13.850	-4.389E-04	 2.686E-03	-3.916E-02	-6.233E-02	 3.033E+01	 1.120E+00	 6.440E+01	 6.440E+01	 1.819E+03	-2.288E-01	 9.668E-01	-2.129E+00	 3.942E-02	 1.921E-01	-9.100E-02	 5.958E+00	 1.312E-02	-6.664E+00	 5.731E+00	 2.029E-01	 2.036E-01	 3.865E+01	 3.865E+01	-4.719E+03
  13.900	-1.221E-03	 3.045E-03	-4.440E-02	-8.525E-02	 3.028E+01	 1.336E+00	 6.440E+01	 6.440E+01	 1.819E+03	-1.991E-01	 1.032E+00	-2.340E+00	 4.393E-02	 2.863E-01	-8.843E-02	 5.950E+00	-8.242E-03	-6.671E+00	 5.726E+00	 2.027E-01	 2.035E-01	 3.861E+01	 3.861E+01	-4.718E+03
  13.950	-1.281E-03	 2.673E-03	-3.940E-02	-9.533E-02	 3.001E+01	 1.258E+00	 6.440E+01	 6.440E+01	 1.819E+03	-1.456E-01	 9.306E-01	-2.056E+00	 1.524E-01	 3.533E-01	-7.335E-02	 5.946E+00	 8.929E-03	-6.676E+00	 5.729E+00	 2.028E-01	 2.033E-01	 3.863E+01	 3.864E+01	-4.718E+03
  14.000	 6.777E-04	 1.387E-03	-2.126E-02	-5.534E-02	 2.989E+01	 1.318E+00	 6.440E+01	 6.440E+01	 1.819E+03	-8.499E-02	 6.585E-01	-1.230E+00	 3.778E-01	 4.003E-01	-7.608E-02	 5.946E+00	-2.466E-02	-6.669E+00	 5.758E+00	 2.038E-01	 2.028E-01	 3.883E+01	 3.883E+01	-4.718E+03
  14.050	 2.858E-03	-4.796E-05	-1.038E-03	-1.090E-02	 3.004E+01	 1.245E+00	 6.439E+01	 6.439E+01	 1.819E+03	-2.851E-02	 3.108E-01	-2.639E-01	 6.022E-01	 4.139E-01	-9.801E-02	 5.963E+00	 1.862E-02	-6.674E+00	 5.731E+00	 2.029E-01	 2.027E-01	 3.865E+01	 3.865E+01	-4.718E+03
  14.100	 3.182E-03	-2.038E-03	 2.673E-02	-1.255E-02	 3.021E+01	 1.168E+00	 6.439E+01	 6.439E+01	 1.819E+03	 7.904E-04	-1.552E-01	 1.111E+00	 6.546E-01	 3.947E-01	-1.146E-01	 5.965E+00	-1.334E-02	-6.666E+00	 5.714E+00	 2.023E-01	 2.027E-01	 3.853E+01	 3.853E+01	-4.718E+03
  14.150	 2.457E-03	-3.878E-03	 5.241E-02	-3.390E-02	 3.003E+01	 1.314E+00	 6.439E+01	 6.440E+01	 1.819E+03	-4.274E-03	-6.258E-01	 2.434E+00	 5.715E-01	 3.529E-01	-1.155E-01	 5.963E+00	 9.298E-03	-6.673E+00	 5.715E+00	 2.023E-01	 2.028E-01	 3.854E+01	 3.854E+01	-4.718E+03
  14.200	 2.625E-03	-5.814E-03	 7.962E-02	-3.070E-02	 2.972E+01	 1.155E+00	 6.439E+01	 6.440E+01	 1.819E+03	-1.852E-02	-1.090E+00	 3.783E+00	 5.260E-01	 2.758E-01	-1.151E-01	 5.957E+00	-6.822E-03	-6.660E+00	 5.722E+00	 2.026E-01	 2.028E-01	 3.859E+01	 3.859E+01	-4.718E+03
  14.250	 3.715E-03	-7.490E-03	 1.032E-01	-7.968E-03	 2.971E+01	 1.271E+00	 6.439E+01	 6.439E+01	 1.819E+03	-1.960E-02	-1.474E+00	 4.904E+00	 5.831E-01	 1.922E-01	-1.270E-01	 5.946E+00	 7.342E-03	-6.683E+00	 5.728E+00	 2.027E-01	 2.027E-01	 3.862E+01	 3.862E+01	-4.718E+03
  14.300	 3.928E-03	-8.519E-03	 1.177E-01	-5.496E-03	 2.999E+01	 9.738E-01	 6.439E+01	 6.439E+01	 1.819E+03	-3.560E-02	-1.723E+00	 5.613E+00	 5.663E-01	 8.843E-02	-1.581E-01	 5.951E+00	-1.788E-02	-6.659E+00	 5.709E+00	 2.021E-01	 2.025E-01	 3.850E+01	 3.850E+01	-4.718E+03
  14.350	 2.496E-03	-8.948E-03	 1.236E-01	-3.431E-02	 3.037E+01	 1.305E+00	 6.439E+01	 6.439E+01	 1.819E+03	-9.798E-02	-1.834E+00	 5.938E+00	 3.428E-01	 9.937E-03	-1.577E-01	 5.951E+00	 1.168E-02	-6.684E+00	 5.707E+00	 2.020E-01	 2.024E-01	 3.848E+01	 3.848E+01	-4.717E+03
  14.400	 8.169E-04	-8.583E-03	 1.186E-01	-6.418E-02	 2.988E+01	 1.284E+00	 6.439E+01	 6.439E+01	 1.819E+03	-1.745E-01	-1.774E+00	 5.739E+00	 8.213E-02	-6.757E-02	-1.261E-01	 5.956E+00	-7.241E-03	-6.661E+00	 5.708E+00	 2.021E-01	 2.025E-01	 3.849E+01	 3.849E+01	-4.718E+03
  14.450	 2.455E-04	-7.831E-03	 1.081E-01	-7.161E-02	 2.935E+01	 1.141E+00	 6.439E+01	 6.439E+01	 1.819E+03	-2.187E-01	-1.582E+00	 5.207E+00	-2.015E-02	-1.271E-01	-1.129E-01	 5.970E+00	 6.727E-04	-6.678E+00	 5.721E+00	 2.025E-01	 2.026E-01	 3.858E+01	 3.858E+01	-4.718E+03
  14.500	 2.622E-04	-6.390E-03	 8.795E-02	-6.764E-02	 2.972E+01	 1.332E+00	 6.439E+01	 6.439E+01	 1.819E+03	-2.379E-01	-1.237E+00	 4.196E+00	-2.001E-02	-1.458E-01	-1.255E-01	 5.964E+00	 3.640E-04	-6.653E+00	 5.729E+00	 2.028E-01	 2.026E-01	 3.863E+01	 3.863E+01	-4.718E+03
  14.550	-5.247E-04	-4.613E-03	 6.307E-02	-7.925E-02	 3.043E+01	 1.042E+00	 6.440E+01	 6.439E+01	 1.819E+03	-2.745E-01	-8.071E-01	 2.967E+00	-1.172E-01	-1.492E-01	-1.311E-01	 5.947E+00	 2.651E-03	-6.686E+00	 5.729E+00	 2.028E-01	 2.026E-01	 3.863E+01	 3.863E+01	-4.718E+03
  14.600	-2.233E-03	-2.497E-03	 3.334E-02	-1.115E-01	 3.038E+01	 1.410E+00	 6.439E+01	 6.439E+01	 1.819E+03	-3.465E-01	-3.153E-01	 1.535E+00	-3.138E-01	-9.872E-02	-1.136E-01	 5.922E+00	-7.565E-03	-6.659E+00	 5.707E+00	 2.020E-01	 2.026E-01	 3.849E+01	 3.849E+01	-4.718E+03
  14.650	-3.592E-03	-5.138E-04	 5.597E-03	-1.324E-01	 2.974E+01	 1.211E+00	 6.439E+01	 6.439E+01	 1.819E+03	-3.504E-01	 1.500E-01	 1.989E-01	-4.455E-01	-4.160E-02	-8.612E-02	 5.943E+00	-1.113E-03	-6.689E+00	 5.702E+00	 2.018E-01	 2.024E-01	 3.845E+01	 3.845E+01	-4.717E+03
  14.700	-2.356E-03	 9.930E-04	-1.555E-02	-1.073E-01	 2.969E+01	 1.207E+00	 6.439E+01	 6.439E+01	 1.819E+03	-2.959E-01	 5.434E-01	-9.086E-01	-2.142E-01	 4.106E-02	-7.553E-02	 5.963E+00	 3.101E-03	-6.657E+00	 5.714E+00	 2.023E-01	 2.024E-01	 3.853E+01	 3.853E+01	-4.717E+03
  14.750	-6.478E-04	 2.316E-03	-3.413E-02	-7.307E-02	 3.028E+01	 1.297E+00	 6.439E+01	 6.439E+01	 1.819E+03	-2.247E-01	 8.583E-01	-1.854E+00	 6.628E-02	 1.377E-01	-8.484E-02	 5.974E+00	-8.976E-03	-6.680E+00	 5.726E+00	 2.027E-01	 2.025E-01	 3.861E+01	 3.861E+01	-4.718E+03
  14.800	-7.330E-04	 2.841E-03	-4.149E-02	-7.423E-02	 3.056E+01	 1.090E+00	 6.440E+01	 6.439E+01	 1.819E+03	-2.057E-01	 1.001E+00	-2.228E+00	 7.696E-02	 2.237E-01	-9.235E-02	 5.960E+00	 8.626E-03	-6.651E+00	 5.730E+00	 2.028E-01	 2.026E-01	 3.864E+01	 3.864E+01	-4.718E+03
  14.850	-1.552E-03	 3.060E-03	-4.464E-02	-9.265E-02	 3.016E+01	 1.422E+00	 6.439E+01	 6.439E+01	 1.819E+03	-1.948E-01	 1.021E+00	-2.326E+00	 2.283E-02	 3.173E-01	-8.306E-02	 5.947E+00	-2.914E-03	-6.685E+00	 5.727E+00	 2.027E-01	 2.026E-01	 3.862E+01	 3.862E+01	-4.718E+03
  14.900	-7.463E-04	 2.264E-03	-3.357E-02	-8.211E-02	 2.974E+01	 1.157E+00	 6.439E+01	 6.439E+01	 1.819E+03	-1.358E-01	 8.475E-01	-1.793E+00	 1.896E-01	 3.696E-01	-7.045E-02	 5.943E+00	 9.497E-03	-6.662E+00	 5.724E+00	 2.026E-01	 2.026E-01	 3.860E+01	 3.860E+01	-4.718E+03
  14.950	 1.676E-03	 9.210E-04	-1.474E-02	-3.700E-02	 2.991E+01	 1.334E+00	 6.439E+01	 6.439E+01	 1.819E+03	-5.084E-02	 5.471E-01	-9.246E-01	 5.112E-01	 4.106E-01	-8.076E-02	 5.947E+00	-1.558E-02	-6.686E+00	 5.706E+00	 2.020E-01	 2.024E-01	 3.848E+01	 3.848E+01	-4.717E+03
  15.000	 3.258E-03	-7.122E-04	 8.199E-03	-7.155E-03	 3.027E+01	 1.100E+00	 6.439E+01	 6.439E+01	 1.819E+03	-4.056E-03	 1.490E-01	 1.986E-01	 6.754E-01	 4.059E-01	-1.065E-01	 5.962E+00	 1.457E-02	-6.659E+00	 5.717E+00	 2.024E-01	 2.024E-01	 3.855E+01	 3.855E+01	-4.717E+03
  15.050	 2.876E-03	-2.753E-03	 3.677E-02	-1.946E-02	 3.023E+01	 1.250E+00	 6.439E+01	 6.439E+01	 1.819E+03	-7.913E-03	-3.343E-01	 1.622E+00	 5.980E-01	 3.832E-01	-1.200E-01	 5.970E+00	-1.637E-02	-6.678E+00	 5.725E+00	 2.027E-01	 2.025E-01	 3.861E+01	 3.861E+01	-4.717E+03
  15.100	 2.274E-03	-4.539E-03	 6.172E-02	-3.694E-02	 2.981E+01	 1.263E+00	 6.439E+01	 6.439E+01	 1.819E+03	-1.741E-02	-7.948E-01	 2.910E+00	 5.172E-01	 3.272E-01	-1.142E-01	 5.961E+00	 1.411E-02	-6.656E+00	 5.728E+00	 2.027E-01	 2.025E-01	 3.862E+01	 3.862E+01	-4.718E+03
  15.150	 2.995E-03	-6.528E-03	 8.963E-02	-2.489E-02	 2.961E+01	 1.189E+00	 6.439E+01	 6.439E+01	 1.819E+03	-1.252E-02	-1.247E+00	 4.257E+00	 5.630E-01	 2.466E-01	-1.139E-01	 5.951E+00	-8.419E-03	-6.678E+00	 5.725E+00	 2.027E-01	 2.026E-01	 3.861E+01	 3.861E+01	-4.718E+03
  15.200	 4.084E-03	-7.902E-03	 1.090E-01	-1.645E-03	 2.983E+01	 1.264E+00	 6.439E+01	 6.439E+01	 1.819E+03	-1.552E-02	-1.576E+00	 5.183E+00	 6.202E-01	 1.581E-01	-1.322E-01	 5.933E+00	 9.264E-03	-6.671E+00	 5.723E+00	 2.026E-01	 2.026E-01	 3.859E+01	 3.859E+01	-4.718E+03
  15.250	 3.594E-03	-8.787E-03	 1.214E-01	-1.101E-02	 3.037E+01	 9.128E-01	 6.439E+01	 6.439E+01	 1.819E+03	-5.880E-02	-1.786E+00	 5.804E+00	 4.901E-01	 5.244E-02	-1.589E-01	 5.946E+00	-2.505E-02	-6.677E+00	 5.699E+00	 2.017E-01	 2.024E-01	 3.843E+01	 3.843E+01	-4.717E+03
  15.300	 1.726E-03	-8.857E-03	 1.224E-01	-4.829E-02	 3.014E+01	 1.449E+00	 6.439E+01	 6.439E+01	 1.819E+03	-1.309E-01	-1.830E+00	 5.905E+00	 2.230E-01	-1.564E-02	-1.534E-01	 5.959E+00	 2.099E-02	-6.668E+00	 5.711E+00	 2.022E-01	 2.024E-01	 3.851E+01	 3.851E+01	-4.717E+03
  15.350	 3.913E-04	-8.370E-03	 1.156E-01	-7.260E-02	 2.950E+01	 1.096E+00	 6.439E+01	 6.439E+01	 1.819E+03	-1.920E-01	-1.723E+00	 5.597E+00	 2.990E-02	-9.755E-02	-1.199E-01	 5.967E+00	-1.953E-02	-6.671E+00	 5.724E+00	 2.026E-01	 2.024E-01	 3.860E+01	 3.860E+01	-4.717E+03
  15.400	 3.261E-04	-7.391E-03	 1.020E-01	-6.879E-02	 2.948E+01	 1.304E+00	 6.440E+01	 6.439E+01	 1.819E+03	-2.241E-01	-1.472E+00	 4.891E+00	-1.044E-02	-1.342E-01	-1.104E-01	 5.964E+00	 1.449E-02	-6.665E+00	 5.730E+00	 2.028E-01	 2.025E-01	 3.864E+01	 3.864E+01	-4.718E+03
  15.450	 1.993E-04	-5.764E-03	 7.922E-02	-6.631E-02	 3.008E+01	 1.207E+00	 6.439E+01	 6.439E+01	 1.819E+03	-2.495E-01	-1.085E+00	 3.759E+00	-3.998E-02	-1.511E-01	-1.284E-01	 5.955E+00	-9.096E-03	-6.667E+00	 5.728E+00	 2.027E-01	 2.026E-01	 3.862E+01	 3.862E+01	-4.718E+03
  15.500	-1.084E-03	-3.899E-03	 5.305E-02	-8.884E-02	 3.045E+01	 1.121E+00	 6.439E+01	 6.439E+01	 1.819E+03	-2.981E-01	-6.351E-01	 2.478E+00	-1.871E-01	-1.360E-01	-1.324E-01	 5.945E+00	 1.132E-02	-6.679E+00	 5.724E+00	 2.026E-01	 2.026E-01	 3.860E+01	 3.860E+01	-4.718E+03
  15.550	-3.127E-03	-1.628E-03	 2.112E-02	-1.287E-01	 3.011E+01	 1.483E+00	 6.439E+01	 6.439E+01	 1.819E+03	-3.375E-01	-1.288E-01	 9.712E-01	-3.809E-01	-7.529E-02	-1.042E-01	 5.946E+00	-2.552E-02	-6.666E+00	 5.679E+00	 2.010E-01	 2.025E-01	 3.829E+01	 3.830E+01	-4.718E+03
  15.600	-3.510E-03	 2.985E-05	-2.127E-03	-1.340E-01	 2.967E+01	 1.050E+00	 6.439E+01	 6.439E+01	 1.819E+03	-3.276E-01	 2.929E-01	-1.928E-01	-3.684E-01	-1.951E-02	-7.476E-02	 5.956E+00	 1.817E-02	-6.679E+00	 5.713E+00	 2.022E-01	 2.024E-01	 3.853E+01	 3.853E+01	-4.717E+03
  15.650	-1.549E-03	 1.549E-03	-2.329E-02	-8.856E-02	 2.989E+01	 1.352E+00	 6.440E+01	 6.439E+01	 1.819E+03	-2.734E-01	 6.743E-01	-1.309E+00	-1.096E-01	 7.935E-02	-7.698E-02	 5.964E+00	-1.459E-02	-6.662E+00	 5.731E+00	 2.029E-01	 2.024E-01	 3.865E+01	 3.865E+01	-4.717E+03
  15.700	-3.434E-04	 2.560E-03	-3.748E-02	-6.414E-02	 3.042E+01	 1.148E+00	 6.440E+01	 6.439E+01	 1.819E+03	-2.194E-01	 9.273E-01	-2.036E+00	 8.358E-02	 1.672E-01	-9.267E-02	 5.967E+00	 8.400E-03	-6.675E+00	 5.734E+00	 2.030E-01	 2.025E-01	 3.867E+01	 3.867E+01	-4.718E+03
  15.750	-1.119E-03	 2.975E-03	-4.344E-02	-8.449E-02	 3.049E+01	 1.233E+00	 6.439E+01	 6.439E+01	 1.819E+03	-1.979E-01	 1.025E+00	-2.306E+00	 6.424E-02	 2.606E-01	-9.149E-02	 5.959E+00	-4.528E-03	-6.656E+00	 5.727E+00	 2.027E-01	 2.026E-01	 3.862E+01	 3.862E+01	-4.718E+03
  15.800	-1.611E-03	 2.914E-03	-4.268E-02	-9.746E-02	 2.999E+01	 1.379E+00	 6.439E+01	 6.439E+01	 1.819E+03	-1.748E-01	 9.818E-01	-2.214E+00	 6.212E-02	 3.411E-01	-7.434E-02	 5.946E+00	 7.194E-03	-6.686E+00	 5.721E+00	 2.025E-01	 2.026E-01	 3.858E+01	 3.858E+01	-4.718E+03
  15.850	 5.393E-05	 1.784E-03	-2.682E-02	-6.585E-02	 2.972E+01	 1.122E+00	 6.439E+01	 6.439E+01	 1.819E+03	-1.110E-01	 7.384E-01	-1.475E+00	 2.839E-01	 3.828E-01	-7.046E-02	 5.944E+00	-1.713E-02	-6.657E+00	 5.707E+00	 2.020E-01	 2.026E-01	 3.849E+01	 3.849E+01	-4.718E+03
  15.900	 2.545E-03	 3.960E-04	-7.331E-03	-1.899E-02	 3.004E+01	 1.294E+00	 6.440E+01	 6.439E+01	 1.819E+03	-2.961E-02	 4.132E-01	-5.655E-01	 5.983E-01	 4.132E-01	-9.186E-02	 5.944E+00	 6.822E-03	-6.688E+00	 5.741E+00	 2.032E-01	 2.024E-01	 3.872E+01	 3.872E+01	-4.717E+03
  15.950	 3.321E-03	-1.484E-03	 1.897E-02	-8.904E-03	 3.035E+01	 1.094E+00	 6.440E+01	 6.439E+01	 1.819E+03	 4.681E-03	-2.719E-02	 7.274E-01	 6.853E-01	 3.991E-01	-1.145E-01	 5.954E+00	-3.236E-03	-6.658E+00	 5.737E+00	 2.031E-01	 2.024E-01	 3.869E+01	 3.868E+01	-4.717E+03
  16.000	 2.524E-03	-3.405E-03	 4.585E-02	-2.927E-02	 3.012E+01	 1.346E+00	 6.439E+01	 6.439E+01	 1.819E+03	-1.110E-02	-5.016E-01	 2.091E+00	 5.599E-01	 3.694E-01	-1.180E-01	 5.976E+00	-2.415E-03	-6.680E+00	 5.725E+00	 2.027E-01	 2.025E-01	 3.861E+01	 3.861E+01	-4.718E+03
  16.050	 2.341E-03	-5.260E-03	 7.185E-02	-3.570E-02	 2.966E+01	 1.198E+00	 6.439E+01	 6.439E+01	 1.819E+03	-2.248E-02	-9.634E-01	 3.408E+00	 5.018E-01	 2.989E-01	-1.116E-01	 5.967E+00	 2.869E-03	-6.651E+00	 5.718E+00	 2.024E-01	 2.026E-01	 3.856E+01	 3.856E+01	-4.718E+03
  16.100	 3.473E-03	-7.130E-03	 9.812E-02	-1.469E-02	 2.963E+01	 1.233E+00	 6.439E+01	 6.439E+01	 1.819E+03	-1.192E-02	-1.385E+00	 4.657E+00	 5.913E-01	 2.159E-01	-1.196E-01	 5.942E+00	 6.352E-04	-6.687E+00	 5.719E+00	 2.024E-01	 2.026E-01	 3.856E+01	 3.857E+01	-4.718E+03
  16.150	 4.179E-03	-8.252E-03	 1.139E-01	-3.199E-04	 3.115E+01	 7.827E-01	 6.440E+01	 6.439E+01	 1.819E+03	-2.107E-02	-1.670E+00	 5.435E+00	 6.158E-01	 1.061E-01	-1.388E-01	 5.921E+00	 1.099E-02	-6.655E+00	 5.750E+00	 2.035E-01	 2.026E-01	 3.877E+01	 3.877E+01	-4.718E+03
  16.200	 2.996E-03	-8.952E-03	 1.238E-01	-2.324E-02	 3.075E+01	 1.137E+00	 6.440E+01	 6.439E+01	 1.819E+03	-8.304E-02	-1.827E+00	 5.926E+00	 4.003E-01	 2.736E-02	-1.558E-01	 5.930E+00	-7.670E-03	-6.691E+00	 5.738E+00	 2.031E-01	 2.023E-01	 3.869E+01	 3.869E+01	-4.717E+03
  16.250	 1.061E-03	-8.716E-03	 1.204E-01	-6.028E-02	 2.999E+01	 1.454E+00	 6.439E+01	 6.439E+01	 1.819E+03	-1.601E-01	-1.801E+00	 5.822E+00	 1.222E-01	-4.205E-02	-1.382E-01	 5.960E+00	 7.931E-03	-6.658E+00	 5.712E+00	 2.022E-01	 2.024E-01	 3.852E+01	 3.852E+01	-4.717E+03
  16.300	 2.251E-04	-8.093E-03	 1.117E-01	-7.432E-02	 2.909E+01	 1.074E+00	 6.439E+01	 6.439E+01	 1.819E+03	-2.075E-01	-1.647E+00	 5.395E+00	-3.017E-03	-1.171E-01	-1.170E-01	 5.985E+00	-1.281E-02	-6.678E+00	 5.709E+00	 2.021E-01	 2.025E-01	 3.850E+01	 3.850E+01	-4.718E+03
  16.350	 3.959E-04	-6.841E-03	 9.426E-02	-6.597E-02	 2.958E+01	 1.358E+00	 6.439E+01	 6.439E+01	 1.819E+03	-2.295E-01	-1.342E+00	 4.505E+00	-2.417E-03	-1.412E-01	-1.158E-01	 5.963E+00	 1.047E-02	-6.652E+00	 5.719E+00	 2.024E-01	 2.026E-01	 3.857E+01	 3.857E+01	-4.718E+03
  16.400	-1.025E-04	-5.113E-03	 7.010E-02	-7.093E-02	 3.052E+01	 1.068E+00	 6.439E+01	 6.439E+01	 1.819E+03	-2.623E-01	-9.290E-01	 3.310E+00	-7.651E-02	-1.532E-01	-1.291E-01	 5.939E+00	-4.196E-03	-6.683E+00	 5.727E+00	 2.027E-01	 2.027E-01	 3.862E+01	 3.862E+01	-4.718E+03
  16.450	-1.689E-03	-3.135E-03	 4.235E-02	-9.921E-02	 3.048E+01	 1.291E+00	 6.440E+01	 6.439E+01	 1.819E+03	-3.308E-01	-4.672E-01	 1.987E+00	-2.413E-01	-1.150E-01	-1.272E-01	 5.929E+00	 2.331E-02	-6.669E+00	 5.743E+00	 2.033E-01	 2.026E-01	 3.873E+01	 3.873E+01	-4.718E+03
  16.500	-3.757E-03	-9.429E-04	 1.168E-02	-1.338E-01	 2.974E+01	 1.417E+00	 6.439E+01	 6.439E+01	 1.819E+03	-3.703E-01	 4.070E-02	 5.043E-01	-5.141E-01	-5.301E-02	-9.544E-02	 5.930E+00	-2.010E-02	-6.686E+00	 5.697E+00	 2.017E-01	 2.024E-01	 3.841E+01	 3.842E+01	-4.717E+03
  16.550	-3.063E-03	 5.816E-04	-9.920E-03	-1.267E-01	 2.958E+01	 1.111E+00	 6.439E+01	 6.439E+01	 1.819E+03	-3.019E-01	 4.422E-01	-6.049E-01	-2.660E-01	 1.440E-02	-6.857E-02	 5.970E+00	 1.558E-02	-6.663E+00	 5.691E+00	 2.014E-01	 2.025E-01	 3.837E+01	 3.838E+01	-4.717E+03
  16.600	-7.637E-04	 2.032E-03	-3.017E-02	-7.701E-02	 3.019E+01	 1.353E+00	 6.439E+01	 6.439E+01	 1.819E+03	-2.273E-01	 7.899E-01	-1.657E+00	 6.158E-02	 1.141E-01	-7.868E-02	 5.982E+00	-1.758E-02	-6.672E+00	 5.713E+00	 2.022E-01	 2.026E-01	 3.853E+01	 3.853E+01	-4.718E+03
  16.650	-2.700E-04	 2.731E-03	-3.983E-02	-6.053E-02	 3.059E+01	 1.048E+00	 6.440E+01	 6.439E+01	 1.819E+03	-2.163E-01	 9.745E-01	-2.160E+00	 7.991E-02	 1.974E-01	-9.844E-02	 5.956E+00	 1.463E-02	-6.660E+00	 5.732E+00	 2.029E-01	 2.026E-01	 3.866E+01	 3.866E+01	-4.718E+03
  16.700	-1.538E-03	 3.069E-03	-4.472E-02	-9.061E-02	 3.030E+01	 1.369E+00	 6.440E+01	 6.439E+01	 1.819E+03	-2.085E-01	 1.030E+00	-2.343E+00	-5.905E-03	 2.946E-01	-9.037E-02	 5.944E+00	-7.264E-03	-6.674E+00	 5.734E+00	 2.030E-01	 2.026E-01	 3.867E+01	 3.867E+01	-4.718E+03
  16.750	-1.479E-03	 2.597E-03	-3.832E-02	-9.889E-02	 2.979E+01	 1.258E+00	 6.439E+01	 6.439E+01	 1.819E+03	-1.508E-01	 9.126E-01	-1.999E+00	 1.226E-01	 3.588E-01	-6.688E-02	 5.941E+00	 9.856E-03	-6.675E+00	 5.728E+00	 2.028E-01	 2.026E-01	 3.863E+01	 3.863E+01	-4.718E+03
  16.800	 1.009E-03	 1.276E-03	-1.974E-02	-5.011E-02	 2.978E+01	 1.301E+00	 6.439E+01	 6.439E+01	 1.819E+03	-7.009E-02	 6.379E-01	-1.164E+00	 4.358E-01	 4.039E-01	-7.178E-02	 5.945E+00	-2.498E-02	-6.674E+00	 5.680E+00	 2.011E-01	 2.025E-01	 3.830E+01	 3.831E+01	-4.718E+03
  16.850	 3.313E-03	-2.026E-04	 1.125E-03	-2.423E-03	 3.019E+01	 1.157E+00	 6.439E+01	 6.439E+01	 1.819E+03	-1.416E-02	 2.709E-01	-1.594E-01	 6.630E-01	 4.101E-01	-1.035E-01	 5.967E+00	 1.836E-02	-6.671E+00	 5.700E+00	 2.018E-01	 2.025E-01	 3.843E+01	 3.843E+01	-4.718E+03
  16.900	 3.178E-03	-2.222E-03	 2.934E-02	-1.194E-02	 3.036E+01	 1.136E+00	 6.439E+01	 6.439E+01	 1.819E+03	-3.065E-03	-2.058E-01	 1.247E+00	 6.373E-01	 3.893E-01	-1.223E-01	 5.967E+00	-1.654E-02	-6.667E+00	 5.728E+00	 2.028E-01	 2.025E-01	 3.862E+01	 3.862E+01	-4.718E+03
  16.950	 2.115E-03	-4.035E-03	 5.461E-02	-4.104E-02	 2.996E+01	 1.324E+00	 6.440E+01	 6.439E+01	 1.819E+03	-1.383E-02	-6.719E-01	 2.558E+00	 5.233E-01	 3.468E-01	-1.144E-01	 5.958E+00	 1.233E-02	-6.669E+00	 5.738E+00	 2.031E-01	 2.026E-01	 3.870E+01	 3.870E+01	-4.718E+03
  17.000	 2.536E-03	-6.002E-03	 8.223E-02	-3.374E-02	 2.955E+01	 1.180E+00	 6.440E+01	 6.439E+01	 1.819E+03	-1.826E-02	-1.132E+00	 3.912E+00	 5.230E-01	 2.690E-01	-1.087E-01	 5.956E+00	-6.833E-03	-6.664E+00	 5.732E+00	 2.029E-01	 2.026E-01	 3.865E+01	 3.865E+01	-4.718E+03
  17.050	 4.017E-03	-7.625E-03	 1.051E-01	-1.859E-03	 2.970E+01	 1.273E+00	 6.439E+01	 6.439E+01	 1.819E+03	-1.416E-02	-1.502E+00	 4.986E+00	 6.169E-01	 1.839E-01	-1.268E-01	 5.950E+00	 8.883E-03	-6.681E+00	 5.723E+00	 2.026E-01	 2.026E-01	 3.860E+01	 3.860E+01	-4.718E+03
  17.100	 4.101E-03	-8.590E-03	 1.187E-01	-1.007E-03	 3.021E+01	 9.147E-01	 6.439E+01	 6.439E+01	 1.819E+03	-3.765E-02	-1.739E+00	 5.659E+00	 5.710E-01	 7.780E-02	-1.628E-01	 5.950E+00	-2.165E-02	-6.663E+00	 5.678E+00	 2.010E-01	 2.025E-01	 3.829E+01	 3.829E+01	-4.718E+03
  17.150	 2.213E-03	-8.919E-03	 1.232E-01	-3.986E-02	 3.036E+01	 1.315E+00	 6.439E+01	 6.439E+01	 1.819E+03	-1.080E-01	-1.838E+00	 5.934E+00	 3.018E-01	 1.356E-03	-1.610E-01	 5.953E+00	 1.488E-02	-6.681E+00	 5.711E+00	 2.022E-01	 2.024E-01	 3.851E+01	 3.851E+01	-4.717E+03
  17.200	 4.386E-04	-8.522E-03	 1.177E-01	-7.232E-02	 2.971E+01	 1.242E+00	 6.439E+01	 6.439E+01	 1.819E+03	-1.836E-01	-1.765E+00	 5.709E+00	 4.107E-02	-7.607E-02	-1.210E-01	 5.960E+00	-1.141E-02	-6.662E+00	 5.730E+00	 2.028E-01	 2.024E-01	 3.864E+01	 3.864E+01	-4.717E+03
  17.250	 2.371E-04	-7.736E-03	 1.068E-01	-7.137E-02	 2.930E+01	 1.189E+00	 6.440E+01	 6.439E+01	 1.819E+03	-2.211E-01	-1.557E+00	 5.138E+00	-2.123E-02	-1.292E-01	-1.071E-01	 5.968E+00	 4.580E-03	-6.676E+00	 5.734E+00	 2.030E-01	 2.025E-01	 3.867E+01	 3.867E+01	-4.718E+03
  17.300	 4.804E-04	-6.249E-03	 8.600E-02	-6.216E-02	 2.984E+01	 1.310E+00	 6.439E+01	 6.439E+01	 1.819E+03	-2.366E-01	-1.198E+00	 4.088E+00	-4.838E-05	-1.469E-01	-1.280E-01	 5.961E+00	-1.811E-03	-6.655E+00	 5.728E+00	 2.028E-01	 2.026E-01	 3.863E+01	 3.863E+01	-4.718E+03
  17.350	-5.508E-04	-4.433E-03	 6.055E-02	-7.938E-02	 3.053E+01	 1.049E+00	 6.439E+01	 6.439E+01	 1.819E+03	-2.776E-01	-7.620E-01	 2.840E+00	-1.214E-01	-1.464E-01	-1.366E-01	 5.946E+00	 5.395E-03	-6.686E+00	 5.722E+00	 2.025E-01	 2.026E-01	 3.859E+01	 3.859E+01	-4.718E+03
  17.400	-2.647E-03	-2.237E-03	 2.971E-02	-1.185E-01	 3.033E+01	 1.430E+00	 6.439E+01	 6.439E+01	 1.819E+03	-3.474E-01	-2.661E-01	 1.376E+00	-3.603E-01	-9.342E-02	-1.114E-01	 5.929E+00	-1.419E-02	-6.659E+00	 5.693E+00	 2.015E-01	 2.026E-01	 3.839E+01	 3.839E+01	-4.718E+03
  17.450	-3.733E-03	-3.646E-04	 3.471E-03	-1.363E-01	 2.964E+01	 1.162E+00	 6.439E+01	 6.439E+01	 1.819E+03	-3.477E-01	 1.854E-01	 9.884E-02	-4.430E-01	-3.687E-02	-7.871E-02	 5.949E+00	 4.285E-03	-6.688E+00	 5.716E+00	 2.023E-01	 2.024E-01	 3.854E+01	 3.854E+01	-4.717E+03
  17.500	-2.064E-03	 1.128E-03	-1.741E-02	-1.005E-01	 2.968E+01	 1.246E+00	 6.439E+01	 6.439E+01	 1.819E+03	-2.887E-01	 5.770E-01	-1.010E+00	-1.780E-01	 5.078E-02	-7.411E-02	 5.963E+00	-2.105E-03	-6.657E+00	 5.727E+00	 2.027E-01	 2.024E-01	 3.862E+01	 3.862E+01	-4.717E+03
  17.550	-3.910E-04	 2.381E-03	-3.500E-02	-6.698E-02	 3.038E+01	 1.264E+00	 6.439E+01	 6.439E+01	 1.819E+03	-2.197E-01	 8.789E-01	-1.908E+00	 9.091E-02	 1.457E-01	-8.996E-02	 5.971E+00	-4.882E-03	-6.680E+00	 5.729E+00	 2.028E-01	 2.025E-01	 3.863E+01	 3.863E+01	-4.718E+03
  17.600	-8.431E-04	 2.881E-03	-4.207E-02	-7.720E-02	 3.062E+01	 1.119E+00	 6.439E+01	 6.439E+01	 1.819E+03	-2.038E-01	 1.010E+00	-2.253E+00	 7.237E-02	 2.333E-01	-9.484E-02	 5.959E+00	 5.973E-03	-6.651E+00	 5.726E+00	 2.027E-01	 2.026E-01	 3.861E+01	 3.861E+01	-4.718E+03
  17.650	-1.738E-03	 3.049E-03	-4.452E-02	-9.745E-02	 3.009E+01	 1.430E+00	 6.439E+01	 6.439E+01	 1.819E+03	-1.934E-01	 1.014E+00	-2.310E+00	 1.321E-02	 3.245E-01	-7.924E-02	 5.948E+00	-1.711E-04	-6.687E+00	 5.722E+00	 2.026E-01	 2.026E-01	 3.859E+01	 3.859E+01	-4.718E+03
  17.700	-6.036E-04	 2.148E-03	-3.194E-02	-7.916E-02	 2.965E+01	 1.132E+00	 6.439E+01	 6.439E+01	 1.819E+03	-1.308E-01	 8.200E-01	-1.713E+00	 2.069E-01	 3.726E-01	-6.730E-02	 5.940E+00	 2.077E-03	-6.658E+00	 5.715E+00	 2.023E-01	 2.026E-01	 3.853E+01	 3.854E+01	-4.718E+03
  17.750	 2.033E-03	 7.876E-04	-1.285E-02	-2.958E-02	 2.993E+01	 1.313E+00	 6.439E+01	 6.439E+01	 1.819E+03	-4.215E-02	 5.135E-01	-8.363E-01	 5.503E-01	 4.111E-01	-8.357E-02	 5.948E+00	-9.995E-03	-6.688E+00	 5.711E+00	 2.022E-01	 2.024E-01	 3.851E+01	 3.851E+01	-4.717E+03
  17.800	 3.389E-03	-9.108E-04	 1.097E-02	-5.267E-03	 3.037E+01	 1.082E+00	 6.439E+01	 6.439E+01	 1.819E+03	 1.038E-03	 1.035E-01	 3.329E-01	 6.918E-01	 4.038E-01	-1.114E-01	 5.962E+00	 9.867E-03	-6.657E+00	 5.725E+00	 2.027E-01	 2.024E-01	 3.861E+01	 3.861E+01	-4.717E+03
  17.850	 2.714E-03	-2.924E-03	 3.914E-02	-2.348E-02	 3.024E+01	 1.283E+00	 6.439E+01	 6.439E+01	 1.819E+03	-1.043E-02	-3.784E-01	 1.746E+00	 5.787E-01	 3.802E-01	-1.208E-01	 5.970E+00	-1.384E-02	-6.680E+00	 5.729E+00	 2.028E-01	 2.024E-01	 3.863E+01	 3.863E+01	-4.717E+03
  17.900	 2.161E-03	-4.714E-03	 6.418E-02	-3.931E-02	 2.971E+01	 1.253E+00	 6.439E+01	 6.439E+01	 1.819E+03	-2.158E-02	-8.379E-01	 3.036E+00	 4.980E-01	 3.204E-01	-1.115E-01	 5.961E+00	 1.292E-02	-6.653E+00	 5.726E+00	 2.027E-01	 2.025E-01	 3.862E+01	 3.862E+01	-4.718E+03
  17.950	 3.134E-03	-6.699E-03	 9.204E-02	-2.200E-02	 2.956E+01	 1.202E+00	 6.439E+01	 6.439E+01	 1.819E+03	-1.166E-02	-1.285E+00	 4.369E+00	 5.734E-01	 2.389E-01	-1.133E-01	 5.951E+00	-6.618E-03	-6.682E+00	 5.723E+00	 2.026E-01	 2.026E-01	 3.859E+01	 3.859E+01	-4.718E+03
  18.000	 4.243E-03	-8.001E-03	 1.104E-01	 1.469E-03	 2.987E+01	 1.245E+00	 6.439E+01	 6.439E+01	 1.819E+03	-1.373E-02	-1.600E+00	 5.250E+00	 6.355E-01	 1.485E-01	-1.356E-01	 5.920E+00	 6.504E-03	-6.669E+00	 5.721E+00	 2.025E-01	 2.026E-01	 3.858E+01	 3.858E+01	-4.718E+03
  18.050	 3.485E-03	-8.837E-03	 1.221E-01	-1.320E-02	 3.049E+01	 9.212E-01	 6.439E+01	 6.439E+01	 1.819E+03	-6.415E-02	-1.803E+00	 5.845E+00	 4.711E-01	 4.322E-02	-1.612E-01	 5.943E+00	-2.207E-02	-6.682E+00	 5.716E+00	 2.023E-01	 2.024E-01	 3.854E+01	 3.854E+01	-4.717E+03
  18.100	 1.453E-03	-8.824E-03	 1.219E-01	-5.350E-02	 3.008E+01	 1.465E+00	 6.439E+01	 6.439E+01	 1.819E+03	-1.409E-01	-1.827E+00	 5.891E+00	 1.841E-01	-2.280E-02	-1.509E-01	 5.959E+00	 1.901E-02	-6.664E+00	 5.729E+00	 2.028E-01	 2.023E-01	 3.864E+01	 3.863E+01	-4.717E+03
  18.150	 2.664E-04	-8.310E-03	 1.148E-01	-7.481E-02	 2.938E+01	 1.089E+00	 6.439E+01	 6.439E+01	 1.819E+03	-1.977E-01	-1.706E+00	 5.554E+00	 1.236E-02	-1.030E-01	-1.164E-01	 5.970E+00	-1.949E-02	-6.674E+00	 5.730E+00	 2.028E-01	 2.024E-01	 3.864E+01	 3.864E+01	-4.717E+03
  18.200	 4.055E-04	-7.264E-03	 1.002E-01	-6.682E-02	 2.950E+01	 1.342E+00	 6.439E+01	 6.439E+01	 1.819E+03	-2.240E-01	-1.439E+00	 4.797E+00	-5.369E-04	-1.353E-01	-1.102E-01	 5.963E+00	 1.540E-02	-6.661E+00	 5.725E+00	 2.027E-01	 2.025E-01	 3.861E+01	 3.861E+01	-4.718E+03
  18.250	 2.212E-04	-5.600E-03	 7.693E-02	-6.538E-02	 3.020E+01	 1.160E+00	 6.439E+01	 6.439E+01	 1.819E+03	-2.508E-01	-1.045E+00	 3.643E+00	-3.843E-02	-1.522E-01	-1.307E-01	 5.952E+00	-9.243E-03	-6.672E+00	 5.721E+00	 2.025E-01	 2.026E-01	 3.858E+01	 3.858E+01	-4.718E+03
  18.300	-1.261E-03	-3.700E-03	 5.028E-02	-9.195E-02	 3.048E+01	 1.158E+00	 6.439E+01	 6.439E+01	 1.819E+03	-3.077E-01	-5.890E-01	 2.345E+00	-2.110E-01	-1.314E-01	-1.329E-01	 5.941E+00	 1.166E-02	-6.676E+00	 5.722E+00	 2.025E-01	 2.026E-01	 3.858E+01	 3.858E+01	-4.718E+03
  18.350	-3.400E-03	-1.453E-03	 1.867E-02	-1.338E-01	 3.002E+01	 1.484E+00	 6.440E+01	 6.439E+01	 1.819E+03	-3.432E-01	-9.073E-02	 8.583E-01	-4.129E-01	-7.043E-02	-1.006E-01	 5.945E+00	-2.598E-02	-6.671E+00	 5.734E+00	 2.030E-01	 2.024E-01	 3.867E+01	 3.867E+01	-4.717E+03
  18.400	-3.458E-03	 1.566E-04	-3.950E-03	-1.346E-01	 2.961E+01	 1.086E+00	 6.439E+01	 6.439E+01	 1.819E+03	-3.180E-01	 3.311E-01	-2.918E-01	-3.360E-01	-9.990E-03	-7.135E-02	 5.963E+00	 1.914E-02	-6.675E+00	 5.728E+00	 2.028E-01	 2.023E-01	 3.862E+01	 3.862E+01	-4.717E+03
  18.450	-1.269E-03	 1.676E-03	-2.506E-02	-8.260E-02	 2.995E+01	 1.387E+00	 6.439E+01	 6.439E+01	 1.819E+03	-2.645E-01	 7.090E-01	-1.406E+00	-7.002E-02	 9.022E-02	-7.804E-02	 5.965E+00	-1.693E-02	-6.665E+00	 5.720E+00	 2.025E-01	 2.024E-01	 3.857E+01	 3.857E+01	-4.717E+03
  18.500	-2.530E-04	 2.611E-03	-3.816E-02	-6.098E-02	 3.049E+01	 1.110E+00	 6.439E+01	 6.439E+01	 1.819E+03	-2.201E-01	 9.436E-01	-2.076E+00	 8.199E-02	 1.751E-01	-9.566E-02	 5.962E+00	 1.181E-02	-6.671E+00	 5.719E+00	 2.024E-01	 2.026E-01	 3.857E+01	 3.857E+01	-4.718E+03
  18.550	-1.276E-03	 3.016E-03	-4.404E-02	-8.817E-02	 3.046E+01	 1.268E+00	 6.439E+01	 6.439E+01	 1.819E+03	-1.979E-01	 1.029E+00	-2.325E+00	 5.184E-02	 2.696E-01	-9.124E-02	 5.958E+00	-6.799E-03	-6.660E+00	 5.722E+00	 2.025E-01	 2.026E-01	 3.858E+01	 3.858E+01	-4.718E+03
  18.600	-1.657E-03	 2.849E-03	-4.181E-02	-9.990E-02	 2.991E+01	 1.341E+00	 6.439E+01	 6.439E+01	 1.819E+03	-1.685E-01	 9.653E-01	-2.166E+00	 7.418E-02	 3.456E-01	-7.124E-02	 5.948E+00	 9.133E-03	-6.684E+00	 5.725E+00	 2.026E-01	 2.026E-01	 3.860E+01	 3.860E+01	-4.718E+03
  18.650	 3.123E-04	 1.628E-03	-2.462E-02	-6.070E-02	 2.970E+01	 1.256E+00	 6.439E+01	 6.439E+01	 1.819E+03	-1.036E-01	 7.206E-01	-1.394E+00	 3.148E-01	 3.938E-01	-7.032E-02	 5.953E+00	-1.960E-02	-6.659E+00	 5.697E+00	 2.017E-01	 2.025E-01	 3.841E+01	 3.841E+01	-4.717E+03
  18.700	 2.816E-03	 2.511E-04	-5.271E-03	-1.295E-02	 3.008E+01	 1.288E+00	 6.439E+01	 6.439E+01	 1.819E+03	-2.500E-02	 3.855E-01	-4.759E-01	 6.209E-01	 4.154E-01	-9.545E-02	 5.950E+00	 1.151E-02	-6.685E+00	 5.696E+00	 2.016E-01	 2.024E-01	 3.841E+01	 3.841E+01	-4.717E+03
  18.750	 3.305E-03	-1.662E-03	 2.146E-02	-9.945E-03	 3.038E+01	 1.081E+00	 6.439E+01	 6.439E+01	 1.819E+03	 5.804E-03	-7.010E-02	 8.530E-01	 6.831E-01	 3.965E-01	-1.173E-01	 5.955E+00	-7.776E-03	-6.660E+00	 5.705E+00	 2.019E-01	 2.025E-01	 3.847E+01	 3.847E+01	-4.718E+03
  18.800	 2.370E-03	-3.556E-03	 4.794E-02	-3.339E-02	 3.008E+01	 1.326E+00	 6.439E+01	 6.439E+01	 1.819E+03	-1.225E-02	-5.468E-01	 2.209E+00	 5.463E-01	 3.630E-01	-1.170E-01	 5.973E+00	 2.133E-03	-6.678E+00	 5.724E+00	 2.026E-01	 2.026E-01	 3.860E+01	 3.860E+01	-4.718E+03
  18.850	 2.356E-03	-5.453E-03	 7.456E-02	-3.540E-02	 2.960E+01	 1.175E+00	 6.440E+01	 6.439E+01	 1.819E+03	-2.397E-02	-1.010E+00	 3.543E+00	 4.975E-01	 2.902E-01	-1.100E-01	 5.966E+00	-6.022E-04	-6.652E+00	 5.733E+00	 2.029E-01	 2.026E-01	 3.866E+01	 3.866E+01	-4.718E+03
  18.900	 3.644E-03	-7.276E-03	 1.002E-01	-1.077E-02	 2.964E+01	 1.255E+00	 6.440E+01	 6.439E+01	 1.819E+03	-1.174E-02	-1.418E+00	 4.753E+00	 6.016E-01	 2.079E-01	-1.211E-01	 5.943E+00	 3.567E-03	-6.687E+00	 5.730E+00	 2.028E-01	 2.026E-01	 3.864E+01	 3.864E+01	-4.718E+03
  18.950	 4.212E-03	-8.325E-03	 1.149E-01	 2.096E-04	 2.987E+01	 1.039E+00	 6.439E+01	 6.439E+01	 1.819E+03	-2.263E-02	-1.680E+00	 5.479E+00	 6.153E-01	 1.071E-01	-1.632E-01	 5.948E+00	-4.158E-03	-6.656E+00	 5.665E+00	 2.005E-01	 2.027E-01	 3.820E+01	 3.820E+01	-4.718E+03
  19.000	 2.794E-03	-8.922E-03	 1.233E-01	-2.743E-02	 3.073E+01	 1.130E+00	 6.439E+01	 6.439E+01	 1.819E+03	-8.957E-02	-1.828E+00	 5.919E+00	 3.744E-01	 1.865E-02	-1.570E-01	 5.933E+00	-1.446E-03	-6.691E+00	 5.679E+00	 2.010E-01	 2.025E-01	 3.829E+01	 3.829E+01	-4.718E+03
  19.050	 8.544E-04	-8.653E-03	 1.196E-01	-6.401E-02	 2.999E+01	 1.361E+00	 6.439E+01	 6.439E+01	 1.819E+03	-1.682E-01	-1.798E+00	 5.796E+00	 9.245E-02	-5.375E-02	-1.290E-01	 5.954E+00	 2.888E-03	-6.659E+00	 5.722E+00	 2.025E-01	 2.025E-01	 3.858E+01	 3.858E+01	-4.718E+03
  19.100	 2.081E-04	-8.016E-03	 1.107E-01	-7.409E-02	 2.907E+01	 1.081E+00	 6.440E+01	 6.439E+01	 1.819E+03	-2.111E-01	-1.631E+00	 5.344E+00	-9.217E-03	-1.224E-01	-1.144E-01	 5.985E+00	-8.904E-03	-6.678E+00	 5.745E+00	 2.034E-01	 2.026E-01	 3.874E+01	 3.874E+01	-4.718E+03
  19.150	 4.541E-04	-6.706E-03	 9.238E-02	-6.449E-02	 2.958E+01	 1.366E+00	 6.440E+01	 6.439E+01	 1.819E+03	-2.297E-01	-1.307E+00	 4.407E+00	 4.954E-03	-1.425E-01	-1.218E-01	 5.967E+00	 7.245E-03	-6.651E+00	 5.740E+00	 2.032E-01	 2.026E-01	 3.871E+01	 3.871E+01	-4.718E+03
  19.200	-1.853E-04	-4.946E-03	 6.775E-02	-7.233E-02	 3.060E+01	 1.071E+00	 6.439E+01	 6.439E+01	 1.819E+03	-2.657E-01	-8.851E-01	 3.191E+00	-8.568E-02	-1.512E-01	-1.310E-01	 5.936E+00	-1.591E-03	-6.685E+00	 5.725E+00	 2.027E-01	 2.026E-01	 3.861E+01	 3.861E+01	-4.718E+03
  19.250	-1.908E-03	-2.922E-03	 3.926E-02	-1.070E-01	 3.051E+01	 1.295E+00	 6.439E+01	 6.439E+01	 1.819E+03	-2.699E-01	-4.169E-01	 1.820E+00	-1.450E-01	-1.113E-01	-1.218E-01	 5.992E+00	 1.780E-02	-6.657E+00	 5.714E+00	 2.023E-01	 2.027E-01	 3.853E+01	 3.853E+01	-4.718E+03
  19.300	-3.861E-03	-7.557E-04	 9.058E-03	-1.354E-01	 2.966E+01	 1.280E+00	 6.439E+01	 6.439E+01	 1.819E+03	-3.710E-01	 7.369E-02	 3.914E-01	-5.217E-01	-5.337E-02	-9.131E-02	 5.934E+00	-1.537E-02	-6.689E+00	 5.704E+00	 2.019E-01	 2.025E-01	 3.846E+01	 3.846E+01	-4.718E+03
  19.350	-2.792E-03	 7.086E-04	-1.163E-02	-1.185E-01	 2.956E+01	 1.112E+00	 6.440E+01	 6.439E+01	 1.819E+03	-3.028E-01	 4.698E-01	-6.957E-01	-2.552E-01	 2.091E-02	-7.018E-02	 5.966E+00	 1.213E-02	-6.660E+00	 5.739E+00	 2.032E-01	 2.024E-01	 3.870E+01	 3.870E+01	-4.717E+03
  19.400	-5.698E-04	 2.117E-03	-3.138E-02	-7.353E-02	 3.028E+01	 1.361E+00	 6.440E+01	 6.439E+01	 1.819E+03	-2.192E-01	 8.131E-01	-1.723E+00	 9.282E-02	 1.231E-01	-8.090E-02	 5.980E+00	-1.591E-02	-6.675E+00	 5.745E+00	 2.034E-01	 2.025E-01	 3.874E+01	 3.874E+01	-4.718E+03
[...]
  31.450	 4.732E-03	 4.704E-03	-6.645E-02	 7.946E-02	 1.184E-01	 3.838E-01	 4.291E+00	 4.288E+00	 1.211E+02	 2.660E-01	 1.065E+00	-3.269E+00	 1.012E+00	-1.433E-01	 9.068E-02	 1.169E+00	-2.290E-04	-6.666E+00	-4.761E-01	-1.685E-02	 0.000E+00	-2.139E-01	-2.138E-01	 0.000E+00
  31.500	 3.861E-03	 4.826E-03	-6.820E-02	 6.080E-02	 1.334E-01	 3.846E-01	 4.263E+00	 4.260E+00	 1.203E+02	 2.501E-01	 1.085E+00	-3.330E+00	 9.165E-01	-1.358E-01	 9.059E-02	 1.150E+00	 2.504E-04	-6.669E+00	-4.689E-01	-1.660E-02	 0.000E+00	-2.093E-01	-2.092E-01	 0.000E+00
  31.550	 3.294E-03	 4.932E-03	-6.972E-02	 4.868E-02	 1.256E-01	 3.794E-01	 4.234E+00	 4.232E+00	 1.195E+02	 2.415E-01	 1.106E+00	-3.388E+00	 8.622E-01	-1.285E-01	 9.136E-02	 1.140E+00	 6.343E-04	-6.670E+00	-4.644E-01	-1.644E-02	 0.000E+00	-2.059E-01	-2.058E-01	 0.000E+00
  31.600	 3.808E-03	 4.980E-03	-7.038E-02	 5.975E-02	 1.058E-01	 3.663E-01	 4.207E+00	 4.204E+00	 1.188E+02	 2.541E-01	 1.125E+00	-3.439E+00	 9.278E-01	-1.215E-01	 9.259E-02	 1.151E+00	 3.626E-04	-6.669E+00	-4.568E-01	-1.617E-02	 0.000E+00	-2.012E-01	-2.011E-01	 0.000E+00
  31.650	 4.626E-03	 5.009E-03	-7.074E-02	 7.731E-02	 1.007E-01	 3.554E-01	 4.180E+00	 4.177E+00	 1.180E+02	 2.715E-01	 1.142E+00	-3.486E+00	 1.020E+00	-1.145E-01	 9.324E-02	 1.166E+00	-2.516E-04	-6.667E+00	-4.457E-01	-1.578E-02	 0.000E+00	-1.951E-01	-1.950E-01	 0.000E+00
  31.700	 4.637E-03	 5.075E-03	-7.166E-02	 7.751E-02	 1.142E-01	 3.521E-01	 4.154E+00	 4.151E+00	 1.173E+02	 2.724E-01	 1.160E+00	-3.535E+00	 1.020E+00	-1.074E-01	 9.314E-02	 1.163E+00	-2.590E-04	-6.667E+00	-4.356E-01	-1.542E-02	 0.000E+00	-1.895E-01	-1.893E-01	 0.000E+00
  31.750	 3.944E-03	 5.175E-03	-7.310E-02	 6.263E-02	 1.240E-01	 3.518E-01	 4.128E+00	 4.125E+00	 1.165E+02	 2.604E-01	 1.177E+00	-3.585E+00	 9.451E-01	-1.002E-01	 9.317E-02	 1.149E+00	 3.337E-04	-6.669E+00	-4.296E-01	-1.521E-02	 0.000E+00	-1.857E-01	-1.855E-01	 0.000E+00
  31.800	 3.605E-03	 5.256E-03	-7.426E-02	 5.536E-02	 1.149E-01	 3.460E-01	 4.102E+00	 4.099E+00	 1.158E+02	 2.562E-01	 1.194E+00	-3.633E+00	 9.153E-01	-9.316E-02	 9.391E-02	 1.143E+00	 6.962E-04	-6.670E+00	-4.250E-01	-1.504E-02	 0.000E+00	-1.825E-01	-1.824E-01	 0.000E+00
  31.850	 4.087E-03	 5.293E-03	-7.476E-02	 6.571E-02	 9.940E-02	 3.350E-01	 4.076E+00	 4.074E+00	 1.151E+02	 2.680E-01	 1.210E+00	-3.675E+00	 9.757E-01	-8.641E-02	 9.489E-02	 1.153E+00	 2.920E-04	-6.669E+00	-4.178E-01	-1.479E-02	 0.000E+00	-1.783E-01	-1.782E-01	 0.000E+00
  31.900	 4.691E-03	 5.320E-03	-7.510E-02	 7.864E-02	 9.795E-02	 3.264E-01	 4.052E+00	 4.049E+00	 1.144E+02	 2.812E-01	 1.224E+00	-3.714E+00	 1.044E+00	-7.964E-02	 9.532E-02	 1.163E+00	-3.105E-04	-6.667E+00	-4.081E-01	-1.445E-02	 0.000E+00	-1.732E-01	-1.731E-01	 0.000E+00
  31.950	 4.623E-03	 5.377E-03	-7.591E-02	 7.712E-02	 1.097E-01	 3.237E-01	 4.028E+00	 4.025E+00	 1.137E+02	 2.809E-01	 1.239E+00	-3.754E+00	 1.036E+00	-7.275E-02	 9.521E-02	 1.160E+00	-2.230E-04	-6.667E+00	-3.997E-01	-1.415E-02	 0.000E+00	-1.686E-01	-1.685E-01	 0.000E+00
  32.000	 4.088E-03	 5.457E-03	-7.706E-02	 6.560E-02	 1.154E-01	 3.225E-01	 4.004E+00	 4.001E+00	 1.130E+02	 2.722E-01	 1.253E+00	-3.795E+00	 9.800E-01	-6.585E-02	 9.531E-02	 1.148E+00	 4.051E-04	-6.669E+00	-3.944E-01	-1.396E-02	 0.000E+00	-1.654E-01	-1.653E-01	 0.000E+00
  32.050	 3.910E-03	 5.517E-03	-7.792E-02	 6.176E-02	 1.060E-01	 3.167E-01	 3.980E+00	 3.978E+00	 1.124E+02	 2.711E-01	 1.267E+00	-3.833E+00	 9.672E-01	-5.917E-02	 9.598E-02	 1.146E+00	 6.831E-04	-6.669E+00	-3.898E-01	-1.380E-02	 0.000E+00	-1.625E-01	-1.624E-01	 0.000E+00
  32.100	 4.342E-03	 5.544E-03	-7.827E-02	 7.100E-02	 9.425E-02	 3.074E-01	 3.957E+00	 3.955E+00	 1.117E+02	 2.818E-01	 1.279E+00	-3.866E+00	 1.021E+00	-5.267E-02	 9.674E-02	 1.154E+00	 2.098E-04	-6.668E+00	-3.831E-01	-1.356E-02	 0.000E+00	-1.587E-01	-1.587E-01	 0.000E+00
  32.150	 4.781E-03	 5.567E-03	-7.857E-02	 8.035E-02	 9.518E-02	 3.006E-01	 3.934E+00	 3.932E+00	 1.111E+02	 2.918E-01	 1.291E+00	-3.897E+00	 1.071E+00	-4.616E-02	 9.700E-02	 1.161E+00	-3.223E-04	-6.667E+00	-3.747E-01	-1.327E-02	 0.000E+00	-1.544E-01	-1.543E-01	 0.000E+00
  32.200	 4.676E-03	 5.614E-03	-7.924E-02	 7.802E-02	 1.049E-01	 2.982E-01	 3.912E+00	 3.910E+00	 1.105E+02	 2.911E-01	 1.302E+00	-3.928E+00	 1.060E+00	-3.957E-02	 9.689E-02	 1.157E+00	-1.501E-04	-6.668E+00	-3.677E-01	-1.302E-02	 0.000E+00	-1.506E-01	-1.506E-01	 0.000E+00
  32.250	 4.276E-03	 5.674E-03	-8.012E-02	 6.936E-02	 1.076E-01	 2.964E-01	 3.890E+00	 3.888E+00	 1.098E+02	 2.851E-01	 1.313E+00	-3.960E+00	 1.019E+00	-3.303E-02	 9.703E-02	 1.148E+00	 4.514E-04	-6.669E+00	-3.630E-01	-1.285E-02	 0.000E+00	-1.479E-01	-1.478E-01	 0.000E+00
  32.300	 4.208E-03	 5.717E-03	-8.072E-02	 6.784E-02	 9.871E-02	 2.907E-01	 3.868E+00	 3.867E+00	 1.092E+02	 2.861E-01	 1.323E+00	-3.989E+00	 1.017E+00	-2.667E-02	 9.761E-02	 1.147E+00	 6.257E-04	-6.669E+00	-3.585E-01	-1.269E-02	 0.000E+00	-1.452E-01	-1.452E-01	 0.000E+00
  32.350	 4.584E-03	 5.734E-03	-8.094E-02	 7.584E-02	 9.009E-02	 2.830E-01	 3.847E+00	 3.845E+00	 1.086E+02	 2.955E-01	 1.333E+00	-4.013E+00	 1.064E+00	-2.047E-02	 9.817E-02	 1.154E+00	 1.348E-04	-6.668E+00	-3.523E-01	-1.247E-02	 0.000E+00	-1.419E-01	-1.418E-01	 0.000E+00
  32.400	 4.899E-03	 5.751E-03	-8.117E-02	 8.251E-02	 9.235E-02	 2.774E-01	 3.826E+00	 3.824E+00	 1.080E+02	 3.032E-01	 1.342E+00	-4.036E+00	 1.100E+00	-1.426E-02	 9.830E-02	 1.159E+00	-2.969E-04	-6.668E+00	-3.450E-01	-1.221E-02	 0.000E+00	-1.383E-01	-1.382E-01	 0.000E+00
  32.450	 4.784E-03	 5.787E-03	-8.168E-02	 7.994E-02	 1.001E-01	 2.752E-01	 3.806E+00	 3.804E+00	 1.075E+02	 3.025E-01	 1.350E+00	-4.060E+00	 1.089E+00	-8.011E-03	 9.819E-02	 1.155E+00	-6.662E-05	-6.668E+00	-3.390E-01	-1.200E-02	 0.000E+00	-1.351E-01	-1.350E-01	 0.000E+00
  32.500	 4.495E-03	 5.831E-03	-8.231E-02	 7.363E-02	 1.007E-01	 2.729E-01	 3.786E+00	 3.784E+00	 1.069E+02	 2.987E-01	 1.358E+00	-4.082E+00	 1.060E+00	-1.833E-03	 9.835E-02	 1.149E+00	 4.694E-04	-6.669E+00	-3.347E-01	-1.185E-02	 0.000E+00	-1.327E-01	-1.326E-01	 0.000E+00
  32.550	 4.500E-03	 5.858E-03	-8.270E-02	 7.365E-02	 9.265E-02	 2.676E-01	 3.766E+00	 3.764E+00	 1.063E+02	 3.011E-01	 1.365E+00	-4.102E+00	 1.066E+00	 4.174E-03	 9.882E-02	 1.149E+00	 5.480E-04	-6.669E+00	-3.304E-01	-1.170E-02	 0.000E+00	-1.303E-01	-1.302E-01	 0.000E+00
  32.600	 4.820E-03	 5.866E-03	-8.280E-02	 8.041E-02	 8.657E-02	 2.611E-01	 3.746E+00	 3.744E+00	 1.058E+02	 3.093E-01	 1.372E+00	-4.119E+00	 1.106E+00	 1.006E-02	 9.922E-02	 1.154E+00	 7.834E-05	-6.668E+00	-3.247E-01	-1.149E-02	 0.000E+00	-1.274E-01	-1.273E-01	 0.000E+00
  32.650	 5.044E-03	 5.876E-03	-8.293E-02	 8.511E-02	 8.949E-02	 2.565E-01	 3.727E+00	 3.725E+00	 1.052E+02	 3.153E-01	 1.378E+00	-4.134E+00	 1.132E+00	 1.594E-02	 9.924E-02	 1.157E+00	-2.488E-04	-6.668E+00	-3.184E-01	-1.127E-02	 0.000E+00	-1.243E-01	-1.242E-01	 0.000E+00
  32.700	 4.935E-03	 5.901E-03	-8.329E-02	 8.265E-02	 9.535E-02	 2.544E-01	 3.708E+00	 3.706E+00	 1.047E+02	 3.148E-01	 1.383E+00	-4.150E+00	 1.122E+00	 2.182E-02	 9.914E-02	 1.153E+00	 1.230E-05	-6.668E+00	-3.132E-01	-1.109E-02	 0.000E+00	-1.216E-01	-1.216E-01	 0.000E+00
  32.750	 4.735E-03	 5.929E-03	-8.370E-02	 7.824E-02	 9.449E-02	 2.519E-01	 3.689E+00	 3.688E+00	 1.042E+02	 3.128E-01	 1.389E+00	-4.164E+00	 1.103E+00	 2.762E-02	 9.928E-02	 1.149E+00	 4.636E-04	-6.669E+00	-3.093E-01	-1.095E-02	 0.000E+00	-1.195E-01	-1.194E-01	 0.000E+00
  32.800	 4.785E-03	 5.943E-03	-8.389E-02	 7.921E-02	 8.751E-02	 2.470E-01	 3.671E+00	 3.669E+00	 1.037E+02	 3.160E-01	 1.393E+00	-4.176E+00	 1.114E+00	 3.326E-02	 9.965E-02	 1.150E+00	 4.667E-04	-6.669E+00	-3.051E-01	-1.080E-02	 0.000E+00	-1.173E-01	-1.172E-01	 0.000E+00
  32.850	 5.053E-03	 5.943E-03	-8.388E-02	 8.483E-02	 8.352E-02	 2.415E-01	 3.653E+00	 3.651E+00	 1.031E+02	 3.231E-01	 1.397E+00	-4.185E+00	 1.147E+00	 3.881E-02	 9.990E-02	 1.154E+00	 4.065E-05	-6.668E+00	-2.999E-01	-1.062E-02	 0.000E+00	-1.147E-01	-1.147E-01	 0.000E+00
  32.900	 5.212E-03	 5.945E-03	-8.391E-02	 8.811E-02	 8.666E-02	 2.377E-01	 3.635E+00	 3.633E+00	 1.026E+02	 3.279E-01	 1.400E+00	-4.193E+00	 1.166E+00	 4.433E-02	 9.985E-02	 1.156E+00	-1.901E-04	-6.668E+00	-2.945E-01	-1.042E-02	 0.000E+00	-1.121E-01	-1.120E-01	 0.000E+00
  32.950	 5.119E-03	 5.959E-03	-8.411E-02	 8.596E-02	 9.086E-02	 2.356E-01	 3.617E+00	 3.616E+00	 1.021E+02	 3.277E-01	 1.403E+00	-4.201E+00	 1.158E+00	 4.983E-02	 9.974E-02	 1.152E+00	 7.838E-05	-6.668E+00	-2.899E-01	-1.026E-02	 0.000E+00	-1.098E-01	-1.098E-01	 0.000E+00
  33.000	 4.989E-03	 5.973E-03	-8.432E-02	 8.302E-02	 8.913E-02	 2.329E-01	 3.600E+00	 3.599E+00	 1.017E+02	 3.271E-01	 1.406E+00	-4.208E+00	 1.147E+00	 5.524E-02	 9.985E-02	 1.149E+00	 4.416E-04	-6.669E+00	-2.863E-01	-1.013E-02	 0.000E+00	-1.079E-01	-1.079E-01	 0.000E+00
  33.050	 5.066E-03	 5.974E-03	-8.434E-02	 8.454E-02	 8.330E-02	 2.285E-01	 3.583E+00	 3.582E+00	 1.012E+02	 3.307E-01	 1.408E+00	-4.212E+00	 1.160E+00	 6.051E-02	 1.001E-01	 1.150E+00	 3.904E-04	-6.669E+00	-2.824E-01	-9.996E-03	 0.000E+00	-1.060E-01	-1.059E-01	 0.000E+00
  33.100	 5.288E-03	 5.966E-03	-8.422E-02	 8.917E-02	 8.075E-02	 2.238E-01	 3.566E+00	 3.565E+00	 1.007E+02	 3.369E-01	 1.409E+00	-4.214E+00	 1.187E+00	 6.569E-02	 1.002E-01	 1.154E+00	 2.027E-05	-6.668E+00	-2.777E-01	-9.829E-03	 0.000E+00	-1.037E-01	-1.037E-01	 0.000E+00
  33.150	 5.402E-03	 5.961E-03	-8.414E-02	 9.146E-02	 8.373E-02	 2.206E-01	 3.550E+00	 3.548E+00	 1.002E+02	 3.408E-01	 1.410E+00	-4.215E+00	 1.202E+00	 7.084E-02	 1.001E-01	 1.154E+00	-1.280E-04	-6.668E+00	-2.729E-01	-9.659E-03	 0.000E+00	-1.014E-01	-1.014E-01	 0.000E+00
  33.200	 5.328E-03	 5.964E-03	-8.419E-02	 8.971E-02	 8.663E-02	 2.185E-01	 3.534E+00	 3.532E+00	 9.978E+01	 3.411E-01	 1.410E+00	-4.215E+00	 1.196E+00	 7.595E-02	 1.000E-01	 1.151E+00	 1.299E-04	-6.668E+00	-2.689E-01	-9.518E-03	 0.000E+00	-9.950E-02	-9.946E-02	 0.000E+00
  33.250	 5.251E-03	 5.965E-03	-8.421E-02	 8.790E-02	 8.445E-02	 2.158E-01	 3.518E+00	 3.516E+00	 9.933E+01	 3.415E-01	 1.410E+00	-4.215E+00	 1.190E+00	 8.096E-02	 1.001E-01	 1.149E+00	 4.103E-04	-6.669E+00	-2.655E-01	-9.398E-03	 0.000E+00	-9.779E-02	-9.776E-02	 0.000E+00
  33.300	 5.342E-03	 5.956E-03	-8.408E-02	 8.970E-02	 7.967E-02	 2.118E-01	 3.502E+00	 3.500E+00	 9.889E+01	 3.452E-01	 1.409E+00	-4.212E+00	 1.204E+00	 8.584E-02	 1.003E-01	 1.151E+00	 3.235E-04	-6.668E+00	-2.618E-01	-9.267E-03	 0.000E+00	-9.600E-02	-9.597E-02	 0.000E+00
  33.350	 5.526E-03	 5.940E-03	-8.385E-02	 9.348E-02	 7.820E-02	 2.078E-01	 3.486E+00	 3.485E+00	 9.845E+01	 3.506E-01	 1.408E+00	-4.207E+00	 1.227E+00	 9.065E-02	 1.003E-01	 1.153E+00	 1.562E-05	-6.668E+00	-2.575E-01	-9.116E-03	 0.000E+00	-9.402E-02	-9.398E-02	 0.000E+00
  33.400	 5.610E-03	 5.927E-03	-8.367E-02	 9.510E-02	 8.078E-02	 2.050E-01	 3.471E+00	 3.470E+00	 9.802E+01	 3.539E-01	 1.407E+00	-4.202E+00	 1.238E+00	 9.541E-02	 1.001E-01	 1.153E+00	-6.901E-05	-6.668E+00	-2.533E-01	-8.967E-03	 0.000E+00	-9.207E-02	-9.204E-02	 0.000E+00
  33.450	 5.556E-03	 5.919E-03	-8.357E-02	 9.376E-02	 8.261E-02	 2.030E-01	 3.456E+00	 3.455E+00	 9.759E+01	 3.546E-01	 1.405E+00	-4.195E+00	 1.234E+00	 1.001E-01	 1.000E-01	 1.151E+00	 1.662E-04	-6.668E+00	-2.497E-01	-8.841E-03	 0.000E+00	-9.038E-02	-9.035E-02	 0.000E+00
  33.500	 5.519E-03	 5.909E-03	-8.343E-02	 9.279E-02	 8.038E-02	 2.004E-01	 3.441E+00	 3.440E+00	 9.717E+01	 3.557E-01	 1.402E+00	-4.188E+00	 1.233E+00	 1.047E-01	 1.000E-01	 1.149E+00	 3.736E-04	-6.669E+00	-2.466E-01	-8.729E-03	 0.000E+00	-8.886E-02	-8.883E-02	 0.000E+00
  33.550	 5.615E-03	 5.890E-03	-8.317E-02	 9.468E-02	 7.664E-02	 1.968E-01	 3.426E+00	 3.425E+00	 9.676E+01	 3.595E-01	 1.399E+00	-4.179E+00	 1.247E+00	 1.092E-01	 1.001E-01	 1.151E+00	 2.658E-04	-6.668E+00	-2.432E-01	-8.608E-03	 0.000E+00	-8.725E-02	-8.722E-02	 0.000E+00
  33.600	 5.767E-03	 5.867E-03	-8.284E-02	 9.777E-02	 7.584E-02	 1.934E-01	 3.412E+00	 3.411E+00	 9.635E+01	 3.642E-01	 1.396E+00	-4.168E+00	 1.266E+00	 1.136E-01	 1.000E-01	 1.152E+00	-2.434E-06	-6.668E+00	-2.393E-01	-8.471E-03	 0.000E+00	-8.550E-02	-8.547E-02	 0.000E+00
  33.650	 5.830E-03	 5.846E-03	-8.255E-02	 9.894E-02	 7.800E-02	 1.909E-01	 3.398E+00	 3.396E+00	 9.595E+01	 3.671E-01	 1.392E+00	-4.156E+00	 1.275E+00	 1.180E-01	 9.984E-02	 1.152E+00	-7.815E-05	-6.668E+00	-2.356E-01	-8.339E-03	 0.000E+00	-8.382E-02	-8.379E-02	 0.000E+00
  33.700	 5.795E-03	 5.829E-03	-8.231E-02	 9.800E-02	 7.904E-02	 1.889E-01	 3.384E+00	 3.382E+00	 9.555E+01	 3.681E-01	 1.388E+00	-4.143E+00	 1.274E+00	 1.223E-01	 9.968E-02	 1.150E+00	 7.222E-05	-6.668E+00	-2.324E-01	-8.226E-03	 0.000E+00	-8.234E-02	-8.231E-02	 0.000E+00
  33.750	 5.788E-03	 5.808E-03	-8.203E-02	 9.766E-02	 7.679E-02	 1.864E-01	 3.370E+00	 3.369E+00	 9.516E+01	 3.698E-01	 1.384E+00	-4.129E+00	 1.276E+00	 1.265E-01	 9.965E-02	 1.148E+00	 1.481E-04	-6.669E+00	-2.295E-01	-8.122E-03	 0.000E+00	-8.097E-02	-8.094E-02	 0.000E+00
  33.800	 5.884E-03	 5.781E-03	-8.164E-02	 9.953E-02	 7.385E-02	 1.832E-01	 3.356E+00	 3.355E+00	 9.478E+01	 3.735E-01	 1.379E+00	-4.114E+00	 1.289E+00	 1.306E-01	 9.963E-02	 1.149E+00	-4.758E-05	-6.668E+00	-2.263E-01	-8.010E-03	 0.000E+00	-7.952E-02	-7.950E-02	 0.000E+00
  33.850	 6.011E-03	 5.751E-03	-8.121E-02	 1.021E-01	 7.357E-02	 1.802E-01	 3.343E+00	 3.342E+00	 9.440E+01	 3.776E-01	 1.373E+00	-4.097E+00	 1.305E+00	 1.346E-01	 9.951E-02	 1.150E+00	-3.396E-04	-6.668E+00	-2.228E-01	-7.887E-03	 0.000E+00	-7.800E-02	-7.797E-02	 0.000E+00
  33.900	 6.061E-03	 5.722E-03	-8.081E-02	 1.029E-01	 7.533E-02	 1.780E-01	 3.329E+00	 3.328E+00	 9.403E+01	 3.802E-01	 1.367E+00	-4.080E+00	 1.313E+00	 1.386E-01	 9.929E-02	 1.149E+00	-4.506E-04	-6.668E+00	-2.195E-01	-7.770E-03	 0.000E+00	-7.653E-02	-7.651E-02	 0.000E+00
  33.950	 6.044E-03	 5.695E-03	-8.045E-02	 1.024E-01	 7.576E-02	 1.761E-01	 3.316E+00	 3.315E+00	 9.366E+01	 3.815E-01	 1.361E+00	-4.061E+00	 1.313E+00	 1.425E-01	 9.911E-02	 1.147E+00	-3.908E-04	-6.669E+00	-2.166E-01	-7.668E-03	 0.000E+00	-7.523E-02	-7.521E-02	 0.000E+00
  34.000	 6.058E-03	 5.666E-03	-8.004E-02	 1.025E-01	 7.354E-02	 1.737E-01	 3.303E+00	 3.302E+00	 9.329E+01	 3.836E-01	 1.355E+00	-4.042E+00	 1.317E+00	 1.463E-01	 9.902E-02	 1.146E+00	-4.096E-04	-6.669E+00	-2.139E-01	-7.572E-03	 0.000E+00	-7.399E-02	-7.397E-02	 0.000E+00
  34.050	 6.150E-03	 5.631E-03	-7.954E-02	 1.043E-01	 7.127E-02	 1.709E-01	 3.291E+00	 3.290E+00	 9.293E+01	 3.871E-01	 1.348E+00	-4.021E+00	 1.329E+00	 1.500E-01	 9.893E-02	 1.146E+00	-6.360E-04	-6.669E+00	-2.110E-01	-7.468E-03	 0.000E+00	-7.270E-02	-7.268E-02	 0.000E+00
  34.100	 6.256E-03	 5.594E-03	-7.902E-02	 1.063E-01	 7.143E-02	 1.683E-01	 3.278E+00	 3.277E+00	 9.258E+01	 3.908E-01	 1.340E+00	-3.998E+00	 1.343E+00	 1.536E-01	 9.873E-02	 1.146E+00	-9.017E-04	-6.669E+00	-2.079E-01	-7.358E-03	 0.000E+00	-7.136E-02	-7.133E-02	 0.000E+00
  34.150	 6.299E-03	 5.558E-03	-7.852E-02	 1.070E-01	 7.288E-02	 1.663E-01	 3.266E+00	 3.265E+00	 9.223E+01	 3.932E-01	 1.333E+00	-3.975E+00	 1.349E+00	 1.572E-01	 9.847E-02	 1.145E+00	-1.000E-03	-6.669E+00	-2.049E-01	-7.254E-03	 0.000E+00	-7.008E-02	-7.006E-02	 0.000E+00
  34.200	 6.296E-03	 5.523E-03	-7.804E-02	 1.067E-01	 7.282E-02	 1.645E-01	 3.254E+00	 3.253E+00	 9.189E+01	 3.947E-01	 1.325E+00	-3.952E+00	 1.351E+00	 1.607E-01	 9.827E-02	 1.143E+00	-1.006E-03	-6.669E+00	-2.023E-01	-7.161E-03	 0.000E+00	-6.892E-02	-6.890E-02	 0.000E+00
  34.250	 6.325E-03	 5.486E-03	-7.751E-02	 1.072E-01	 7.077E-02	 1.623E-01	 3.242E+00	 3.241E+00	 9.155E+01	 3.969E-01	 1.316E+00	-3.927E+00	 1.356E+00	 1.641E-01	 9.813E-02	 1.141E+00	-1.188E-03	-6.669E+00	-1.998E-01	-7.073E-03	 0.000E+00	-6.782E-02	-6.780E-02	 0.000E+00
  34.300	 6.412E-03	 5.444E-03	-7.692E-02	 1.088E-01	 6.906E-02	 1.599E-01	 3.230E+00	 3.229E+00	 9.121E+01	 4.003E-01	 1.307E+00	-3.900E+00	 1.368E+00	 1.674E-01	 9.797E-02	 1.139E+00	-1.608E-03	-6.669E+00	-1.972E-01	-6.980E-03	 0.000E+00	-6.669E-02	-6.667E-02	 0.000E+00
  34.350	 6.502E-03	 5.400E-03	-7.630E-02	 1.105E-01	 6.935E-02	 1.578E-01	 3.218E+00	 3.217E+00	 9.088E+01	 4.036E-01	 1.298E+00	-3.873E+00	 1.380E+00	 1.707E-01	 9.773E-02	 1.137E+00	-2.090E-03	-6.670E+00	-1.945E-01	-6.885E-03	 0.000E+00	-6.555E-02	-6.553E-02	 0.000E+00
  34.400	 6.541E-03	 5.357E-03	-7.571E-02	 1.112E-01	 7.041E-02	 1.561E-01	 3.206E+00	 3.205E+00	 9.055E+01	 4.058E-01	 1.289E+00	-3.845E+00	 1.386E+00	 1.738E-01	 9.744E-02	 1.133E+00	-2.492E-03	-6.670E+00	-1.920E-01	-6.798E-03	 0.000E+00	-6.448E-02	-6.447E-02	 0.000E+00
  34.450	 6.550E-03	 5.315E-03	-7.512E-02	 1.111E-01	 7.006E-02	 1.548E-01	 3.195E+00	 3.194E+00	 9.023E+01	 4.076E-01	 1.279E+00	-3.816E+00	 1.389E+00	 1.769E-01	 9.721E-02	 1.127E+00	-3.040E-03	-6.670E+00	-1.900E-01	-6.724E-03	 0.000E+00	-6.355E-02	-6.354E-02	 0.000E+00
  34.500	 6.589E-03	 5.269E-03	-7.448E-02	 1.118E-01	 6.825E-02	 1.534E-01	 3.183E+00	 3.183E+00	 8.991E+01	 4.099E-01	 1.269E+00	-3.786E+00	 1.395E+00	 1.800E-01	 9.702E-02	 1.119E+00	-3.929E-03	-6.671E+00	-1.882E-01	-6.662E-03	 0.000E+00	-6.274E-02	-6.272E-02	 0.000E+00
  34.550	 6.671E-03	 5.220E-03	-7.379E-02	 1.133E-01	 6.692E-02	 1.527E-01	 3.172E+00	 3.172E+00	 8.959E+01	 4.130E-01	 1.258E+00	-3.755E+00	 1.406E+00	 1.829E-01	 9.681E-02	 1.106E+00	-5.481E-03	-6.673E+00	-1.869E-01	-6.614E-03	 0.000E+00	-6.207E-02	-6.206E-02	 0.000E+00
  34.600	 6.749E-03	 5.169E-03	-7.307E-02	 1.147E-01	 6.704E-02	 1.538E-01	 3.161E+00	 3.160E+00	 8.928E+01	 4.160E-01	 1.247E+00	-3.722E+00	 1.416E+00	 1.859E-01	 9.652E-02	 1.084E+00	-7.892E-03	-6.675E+00	-1.867E-01	-6.608E-03	 0.000E+00	-6.179E-02	-6.178E-02	 0.000E+00
  34.650	 6.786E-03	 5.117E-03	-7.234E-02	 1.153E-01	 6.765E-02	 1.578E-01	 3.149E+00	 3.149E+00	 8.896E+01	 4.182E-01	 1.236E+00	-3.688E+00	 1.421E+00	 1.889E-01	 9.621E-02	 1.044E+00	-1.108E-02	-6.679E+00	-1.887E-01	-6.681E-03	 0.000E+00	-6.225E-02	-6.224E-02	 0.000E+00
  34.700	 6.805E-03	 5.064E-03	-7.161E-02	 1.155E-01	 6.688E-02	 1.629E-01	 3.137E+00	 3.138E+00	 8.864E+01	 4.200E-01	 1.224E+00	-3.652E+00	 1.425E+00	 1.918E-01	 9.595E-02	 9.915E-01	-1.405E-02	-6.685E+00	-1.936E-01	-6.852E-03	 0.000E+00	-6.360E-02	-6.360E-02	 0.000E+00
  34.750	 6.851E-03	 5.005E-03	-7.078E-02	 1.162E-01	 6.481E-02	 1.746E-01	 3.125E+00	 3.126E+00	 8.831E+01	 4.224E-01	 1.211E+00	-3.614E+00	 1.432E+00	 1.949E-01	 9.573E-02	 9.447E-01	-1.796E-02	-6.690E+00	-2.024E-01	-7.164E-03	 0.000E+00	-6.623E-02	-6.625E-02	 0.000E+00
  34.800	 6.929E-03	 4.954E-03	-7.007E-02	 1.177E-01	 6.261E-02	 1.640E-01	 3.113E+00	 3.114E+00	 8.796E+01	 4.253E-01	 1.200E+00	-3.581E+00	 1.442E+00	 1.973E-01	 9.550E-02	 9.769E-01	-1.660E-02	-6.687E+00	-2.061E-01	-7.296E-03	 0.000E+00	-6.719E-02	-6.721E-02	 0.000E+00
  34.850	 6.995E-03	 4.921E-03	-6.960E-02	 1.189E-01	 6.328E-02	 1.193E-01	 3.102E+00	 3.102E+00	 8.762E+01	 4.281E-01	 1.191E+00	-3.558E+00	 1.451E+00	 1.983E-01	 9.517E-02	 1.098E+00	-5.984E-03	-6.674E+00	-1.903E-01	-6.737E-03	 0.000E+00	-6.183E-02	-6.182E-02	 0.000E+00
  34.900	 7.019E-03	 4.875E-03	-6.896E-02	 1.192E-01	 6.828E-02	 1.050E-01	 3.094E+00	 3.091E+00	 8.732E+01	 4.299E-01	 1.179E+00	-3.526E+00	 1.455E+00	 2.002E-01	 9.466E-02	 1.179E+00	 1.468E-03	-6.665E+00	-1.630E-01	-5.770E-03	 0.000E+00	-5.281E-02	-5.277E-02	 0.000E+00
  34.950	 7.038E-03	 4.803E-03	-6.796E-02	 1.194E-01	 7.070E-02	 1.372E-01	 3.085E+00	 3.082E+00	 8.706E+01	 4.316E-01	 1.164E+00	-3.479E+00	 1.458E+00	 2.036E-01	 9.424E-02	 1.147E+00	-1.262E-03	-6.668E+00	-1.512E-01	-5.352E-03	 0.000E+00	-4.884E-02	-4.879E-02	 0.000E+00
  35.000	 7.099E-03	 4.732E-03	-6.696E-02	 1.204E-01	 6.434E-02	 1.614E-01	 3.074E+00	 3.073E+00	 8.680E+01	 4.342E-01	 1.150E+00	-3.433E+00	 1.466E+00	 2.067E-01	 9.415E-02	 1.076E+00	-6.540E-03	-6.677E+00	-1.614E-01	-5.714E-03	 0.000E+00	-5.196E-02	-5.194E-02	 0.000E+00
