
These predictions were generated by FAST (v7.01.00a-bjj, 16-Feb-2012) on 22-Feb-2012 at 09:17:36.
The aerodynamic calculations were made by AeroDyn (v13.00.01a-bjj, 16-Feb-2012).

 FAST certification Test #04: AWT-27CR2 with many DOFs with free yaw and FF turbulence.

Time	Azimuth	TeetDefl	NacYawP	Spn5MLxb1	Spn5MLyb1	RootFxc1	RootFyc1	RootFzc1	RootMOoP1	RootMIP1	RootMzc1	RotTorq	YawBrMxp	YawBrMyp	TTDspFA	TTDspSS	TwrBsFxt	TwrBsFyt	Spn3TDxb2	Spn4TDyb2	Spn5TDzb2	Spn2FLxb1	Spn2FLyb1	Spn2FLzb1
(s)	(deg)	(deg)	(deg)	(kN·m)	(kN·m)	(kN)	(kN)	(kN)	(kN·m)	(kN·m)	(kN·m)	(kN·m)	(kN·m)	(kN·m)	(m)	(m)	(kN)	(kN)	(m)	(m)	(m)	(kN)	(kN)	(kN)
  10.005	 3.216E+02	 7.362E-01	-9.261E-01	-4.047E-02	-3.218E-01	 3.378E+00	 2.293E-01	 7.716E+01	 3.067E+01	 3.096E+00	 3.684E-03	 3.671E+01	 3.841E+01	 8.443E+01	 4.875E-02	-3.369E-04	 2.805E+01	 2.717E+00	 2.732E-02	-1.516E-02	-7.765E-04	 3.889E+00	 1.260E-01	 6.450E+01
  10.020	 3.264E+02	 7.325E-01	-9.054E-01	-2.711E-03	-2.173E-01	 3.422E+00	-3.661E-02	 7.697E+01	 3.149E+01	 4.437E+00	-2.663E-03	 3.658E+01	 3.822E+01	 8.384E+01	 4.844E-02	-3.965E-04	 2.772E+01	 2.536E+00	 2.803E-02	-1.515E-02	-8.326E-04	 3.955E+00	-2.494E-02	 6.439E+01
  10.035	 3.312E+02	 7.246E-01	-8.822E-01	 4.511E-02	-1.021E-01	 3.556E+00	-3.215E-01	 7.679E+01	 3.287E+01	 5.894E+00	-1.023E-02	 3.612E+01	 3.766E+01	 8.318E+01	 4.812E-02	-4.961E-04	 2.736E+01	 2.185E+00	 2.898E-02	-1.512E-02	-9.150E-04	 4.068E+00	-1.752E-01	 6.428E+01
  10.050	 3.360E+02	 7.116E-01	-8.564E-01	 9.172E-02	 1.533E-02	 3.704E+00	-6.250E-01	 7.663E+01	 3.452E+01	 7.464E+00	-1.919E-02	 3.555E+01	 3.695E+01	 8.252E+01	 4.780E-02	-6.342E-04	 2.698E+01	 1.736E+00	 3.008E-02	-1.507E-02	-1.015E-03	 4.240E+00	-3.371E-01	 6.418E+01
  10.065	 3.408E+02	 6.933E-01	-8.284E-01	 1.422E-01	 1.451E-01	 3.867E+00	-9.314E-01	 7.648E+01	 3.616E+01	 9.038E+00	-2.936E-02	 3.499E+01	 3.627E+01	 8.198E+01	 4.748E-02	-8.088E-04	 2.657E+01	 1.274E+00	 3.125E-02	-1.501E-02	-1.121E-03	 4.441E+00	-4.992E-01	 6.407E+01
  10.080	 3.456E+02	 6.695E-01	-7.985E-01	 1.785E-01	 2.645E-01	 3.987E+00	-1.234E+00	 7.635E+01	 3.748E+01	 1.049E+01	-3.910E-02	 3.452E+01	 3.567E+01	 8.157E+01	 4.717E-02	-1.017E-03	 2.616E+01	 8.658E-01	 3.238E-02	-1.496E-02	-1.216E-03	 4.576E+00	-6.599E-01	 6.398E+01
  10.095	 3.504E+02	 6.398E-01	-7.671E-01	 2.010E-01	 3.451E-01	 4.018E+00	-1.510E+00	 7.624E+01	 3.836E+01	 1.169E+01	-4.698E-02	 3.390E+01	 3.496E+01	 8.116E+01	 4.688E-02	-1.252E-03	 2.578E+01	 5.505E-01	 3.339E-02	-1.494E-02	-1.289E-03	 4.659E+00	-8.009E-01	 6.390E+01
  10.110	 3.552E+02	 6.044E-01	-7.346E-01	 2.083E-01	 3.861E-01	 4.043E+00	-1.770E+00	 7.617E+01	 3.890E+01	 1.270E+01	-5.288E-02	 3.331E+01	 3.428E+01	 8.079E+01	 4.661E-02	-1.509E-03	 2.550E+01	 3.009E-01	 3.409E-02	-1.489E-02	-1.335E-03	 4.723E+00	-9.273E-01	 6.384E+01
  10.125	 3.600E+02	 5.631E-01	-7.013E-01	 2.070E-01	 3.751E-01	 3.945E+00	-2.030E+00	 7.613E+01	 3.882E+01	 1.360E+01	-5.756E-02	 3.319E+01	 3.406E+01	 8.008E+01	 4.636E-02	-1.777E-03	 2.531E+01	 5.348E-02	 3.355E-02	-1.455E-02	-1.338E-03	 4.726E+00	-1.055E+00	 6.381E+01
  10.140	 4.787E+00	 5.186E-01	-6.674E-01	 2.269E-01	 3.818E-01	 3.762E+00	-2.306E+00	 7.614E+01	 3.770E+01	 1.479E+01	-6.599E-02	 3.194E+01	 3.273E+01	 7.963E+01	 4.614E-02	-2.047E-03	 2.519E+01	-1.758E-01	 3.252E-02	-1.378E-02	-1.285E-03	 4.599E+00	-1.231E+00	 6.382E+01
  10.155	 9.587E+00	 4.702E-01	-6.334E-01	 2.455E-01	 3.991E-01	 3.969E+00	-2.552E+00	 7.624E+01	 3.707E+01	 1.573E+01	-7.079E-02	 3.017E+01	 3.086E+01	 7.960E+01	 4.595E-02	-2.308E-03	 2.527E+01	-4.869E-01	 3.235E-02	-1.302E-02	-1.213E-03	 4.589E+00	-1.358E+00	 6.388E+01
  10.170	 1.439E+01	 4.114E-01	-6.000E-01	 2.201E-01	 2.968E-01	 3.939E+00	-2.755E+00	 7.633E+01	 3.634E+01	 1.610E+01	-6.818E-02	 2.907E+01	 2.960E+01	 7.890E+01	 4.578E-02	-2.549E-03	 2.530E+01	-9.603E-01	 3.184E-02	-1.240E-02	-1.117E-03	 4.579E+00	-1.434E+00	 6.394E+01
  10.185	 1.919E+01	 3.436E-01	-5.673E-01	 1.983E-01	 1.762E-01	 3.869E+00	-2.959E+00	 7.646E+01	 3.539E+01	 1.649E+01	-6.595E-02	 2.890E+01	 2.923E+01	 7.813E+01	 4.565E-02	-2.764E-03	 2.528E+01	-1.535E+00	 3.092E-02	-1.191E-02	-1.014E-03	 4.554E+00	-1.515E+00	 6.403E+01
  10.200	 2.399E+01	 2.695E-01	-5.354E-01	 1.949E-01	 7.655E-02	 3.699E+00	-3.188E+00	 7.665E+01	 3.370E+01	 1.726E+01	-6.773E-02	 2.925E+01	 2.938E+01	 7.744E+01	 4.555E-02	-2.949E-03	 2.520E+01	-2.061E+00	 2.974E-02	-1.144E-02	-9.116E-04	 4.408E+00	-1.651E+00	 6.417E+01
  10.215	 2.879E+01	 1.896E-01	-5.045E-01	 2.016E-01	-3.042E-03	 3.455E+00	-3.459E+00	 7.686E+01	 3.166E+01	 1.847E+01	-7.201E-02	 2.973E+01	 2.969E+01	 7.685E+01	 4.548E-02	-3.103E-03	 2.515E+01	-2.403E+00	 2.826E-02	-1.084E-02	-8.128E-04	 4.210E+00	-1.847E+00	 6.431E+01
  10.230	 3.359E+01	 1.053E-01	-4.750E-01	 2.181E-01	-1.199E-01	 3.161E+00	-3.751E+00	 7.706E+01	 2.966E+01	 1.996E+01	-7.741E-02	 2.973E+01	 2.959E+01	 7.655E+01	 4.543E-02	-3.222E-03	 2.521E+01	-2.498E+00	 2.656E-02	-1.002E-02	-7.185E-04	 4.032E+00	-2.073E+00	 6.446E+01
  10.245	 3.839E+01	 1.962E-02	-4.479E-01	 2.291E-01	-3.054E-01	 2.954E+00	-4.073E+00	 7.728E+01	 2.804E+01	 2.171E+01	-8.356E-02	 2.926E+01	 2.909E+01	 7.689E+01	 4.540E-02	-3.301E-03	 2.542E+01	-2.397E+00	 2.496E-02	-9.036E-03	-6.349E-04	 3.900E+00	-2.325E+00	 6.462E+01
  10.260	 4.319E+01	-6.400E-02	-4.245E-01	 2.550E-01	-4.907E-01	 2.883E+00	-4.423E+00	 7.752E+01	 2.742E+01	 2.375E+01	-9.151E-02	 2.888E+01	 2.870E+01	 7.779E+01	 4.537E-02	-3.334E-03	 2.574E+01	-2.227E+00	 2.382E-02	-8.092E-03	-5.703E-04	 3.923E+00	-2.585E+00	 6.480E+01
  10.275	 4.799E+01	-1.424E-01	-4.058E-01	 2.864E-01	-6.750E-01	 2.935E+00	-4.822E+00	 7.781E+01	 2.777E+01	 2.626E+01	-1.042E-01	 2.961E+01	 2.941E+01	 7.917E+01	 4.535E-02	-3.315E-03	 2.599E+01	-2.108E+00	 2.345E-02	-7.460E-03	-5.367E-04	 4.066E+00	-2.878E+00	 6.501E+01
  10.290	 5.279E+01	-2.135E-01	-3.926E-01	 3.645E-01	-7.722E-01	 3.177E+00	-5.302E+00	 7.813E+01	 2.945E+01	 2.944E+01	-1.256E-01	 3.245E+01	 3.219E+01	 8.081E+01	 4.535E-02	-3.245E-03	 2.605E+01	-2.074E+00	 2.391E-02	-7.363E-03	-5.418E-04	 4.370E+00	-3.216E+00	 6.524E+01
  10.305	 5.759E+01	-2.750E-01	-3.854E-01	 4.717E-01	-7.522E-01	 3.494E+00	-5.867E+00	 7.845E+01	 3.202E+01	 3.332E+01	-1.590E-01	 3.740E+01	 3.706E+01	 8.268E+01	 4.538E-02	-3.132E-03	 2.581E+01	-2.012E+00	 2.509E-02	-7.831E-03	-5.928E-04	 4.756E+00	-3.620E+00	 6.547E+01
  10.320	 6.239E+01	-3.248E-01	-3.840E-01	 6.126E-01	-5.818E-01	 3.868E+00	-6.465E+00	 7.876E+01	 3.521E+01	 3.747E+01	-2.043E-01	 4.328E+01	 4.293E+01	 8.477E+01	 4.545E-02	-2.986E-03	 2.528E+01	-1.726E+00	 2.682E-02	-8.703E-03	-6.930E-04	 5.172E+00	-4.046E+00	 6.567E+01
  10.335	 6.719E+01	-3.611E-01	-3.882E-01	 7.459E-01	-3.062E-01	 4.277E+00	-7.002E+00	 7.905E+01	 3.882E+01	 4.117E+01	-2.564E-01	 4.831E+01	 4.808E+01	 8.699E+01	 4.556E-02	-2.821E-03	 2.460E+01	-1.078E+00	 2.890E-02	-9.700E-03	-8.431E-04	 5.607E+00	-4.412E+00	 6.584E+01
  10.350	 7.199E+01	-3.836E-01	-3.974E-01	 8.418E-01	-8.541E-03	 4.678E+00	-7.390E+00	 7.932E+01	 4.258E+01	 4.373E+01	-3.057E-01	 5.093E+01	 5.096E+01	 8.921E+01	 4.573E-02	-2.645E-03	 2.395E+01	-1.028E-01	 3.115E-02	-1.055E-02	-1.033E-03	 6.027E+00	-4.648E+00	 6.598E+01
  10.365	 7.679E+01	-3.920E-01	-4.109E-01	 8.983E-01	 3.202E-01	 5.175E+00	-7.605E+00	 7.959E+01	 4.642E+01	 4.488E+01	-3.431E-01	 5.065E+01	 5.104E+01	 9.133E+01	 4.596E-02	-2.461E-03	 2.353E+01	 9.574E-01	 3.349E-02	-1.113E-02	-1.250E-03	 6.445E+00	-4.719E+00	 6.611E+01
  10.380	 8.159E+01	-3.879E-01	-4.279E-01	 8.924E-01	 5.907E-01	 5.685E+00	-7.634E+00	 7.990E+01	 4.987E+01	 4.465E+01	-3.612E-01	 4.808E+01	 4.881E+01	 9.299E+01	 4.624E-02	-2.268E-03	 2.341E+01	 1.773E+00	 3.584E-02	-1.146E-02	-1.474E-03	 6.792E+00	-4.640E+00	 6.626E+01
  10.395	 8.639E+01	-3.751E-01	-4.474E-01	 8.406E-01	 7.636E-01	 6.118E+00	-7.505E+00	 8.023E+01	 5.275E+01	 4.326E+01	-3.589E-01	 4.460E+01	 4.556E+01	 9.376E+01	 4.661E-02	-2.065E-03	 2.357E+01	 2.074E+00	 3.782E-02	-1.167E-02	-1.682E-03	 7.088E+00	-4.436E+00	 6.642E+01
  10.410	 9.119E+01	-3.570E-01	-4.680E-01	 7.659E-01	 8.511E-01	 6.368E+00	-7.283E+00	 8.058E+01	 5.466E+01	 4.137E+01	-3.434E-01	 4.156E+01	 4.259E+01	 9.365E+01	 4.704E-02	-1.858E-03	 2.397E+01	 1.802E+00	 3.924E-02	-1.189E-02	-1.848E-03	 7.268E+00	-4.189E+00	 6.661E+01
  10.425	 9.599E+01	-3.366E-01	-4.885E-01	 7.054E-01	 8.885E-01	 6.440E+00	-7.021E+00	 8.096E+01	 5.531E+01	 3.948E+01	-3.237E-01	 3.973E+01	 4.068E+01	 9.279E+01	 4.756E-02	-1.656E-03	 2.454E+01	 1.163E+00	 4.008E-02	-1.216E-02	-1.950E-03	 7.340E+00	-3.953E+00	 6.683E+01
  10.440	 1.008E+02	-3.174E-01	-5.076E-01	 6.583E-01	 8.813E-01	 6.386E+00	-6.783E+00	 8.134E+01	 5.469E+01	 3.788E+01	-3.038E-01	 3.924E+01	 4.007E+01	 9.152E+01	 4.816E-02	-1.477E-03	 2.530E+01	 5.097E-01	 4.027E-02	-1.246E-02	-1.975E-03	 7.216E+00	-3.773E+00	 6.706E+01
  10.455	 1.056E+02	-3.030E-01	-5.245E-01	 6.215E-01	 8.239E-01	 6.187E+00	-6.557E+00	 8.171E+01	 5.296E+01	 3.648E+01	-2.839E-01	 3.953E+01	 4.029E+01	 9.007E+01	 4.883E-02	-1.334E-03	 2.622E+01	 1.851E-01	 3.974E-02	-1.266E-02	-1.914E-03	 6.964E+00	-3.632E+00	 6.728E+01
  10.470	 1.104E+02	-2.957E-01	-5.386E-01	 5.876E-01	 7.307E-01	 5.914E+00	-6.348E+00	 8.206E+01	 5.040E+01	 3.520E+01	-2.629E-01	 4.000E+01	 4.078E+01	 8.874E+01	 4.954E-02	-1.239E-03	 2.726E+01	 3.535E-01	 3.847E-02	-1.264E-02	-1.777E-03	 6.607E+00	-3.521E+00	 6.750E+01
  10.485	 1.152E+02	-2.963E-01	-5.500E-01	 5.576E-01	 6.251E-01	 5.554E+00	-6.149E+00	 8.240E+01	 4.721E+01	 3.397E+01	-2.404E-01	 3.999E+01	 4.092E+01	 8.777E+01	 5.030E-02	-1.191E-03	 2.837E+01	 9.473E-01	 3.654E-02	-1.231E-02	-1.579E-03	 6.212E+00	-3.431E+00	 6.771E+01
  10.500	 1.200E+02	-3.046E-01	-5.591E-01	 5.250E-01	 5.174E-01	 5.081E+00	-5.920E+00	 8.274E+01	 4.346E+01	 3.263E+01	-2.160E-01	 3.903E+01	 4.018E+01	 8.713E+01	 5.108E-02	-1.184E-03	 2.947E+01	 1.707E+00	 3.406E-02	-1.162E-02	-1.344E-03	 5.754E+00	-3.338E+00	 6.793E+01
  10.515	 1.248E+02	-3.199E-01	-5.661E-01	 4.801E-01	 3.677E-01	 4.527E+00	-5.666E+00	 8.308E+01	 3.960E+01	 3.116E+01	-1.896E-01	 3.716E+01	 3.851E+01	 8.683E+01	 5.187E-02	-1.207E-03	 3.052E+01	 2.289E+00	 3.118E-02	-1.060E-02	-1.097E-03	 5.294E+00	-3.238E+00	 6.814E+01
  10.530	 1.296E+02	-3.407E-01	-5.715E-01	 4.341E-01	 1.723E-01	 4.015E+00	-5.373E+00	 8.341E+01	 3.596E+01	 2.953E+01	-1.641E-01	 3.464E+01	 3.611E+01	 8.669E+01	 5.263E-02	-1.250E-03	 3.151E+01	 2.422E+00	 2.816E-02	-9.389E-03	-8.600E-04	 4.879E+00	-3.106E+00	 6.836E+01
  10.545	 1.344E+02	-3.651E-01	-5.753E-01	 3.979E-01	-3.565E-02	 3.534E+00	-5.052E+00	 8.374E+01	 3.255E+01	 2.788E+01	-1.416E-01	 3.211E+01	 3.358E+01	 8.651E+01	 5.336E-02	-1.306E-03	 3.240E+01	 2.017E+00	 2.531E-02	-8.202E-03	-6.555E-04	 4.448E+00	-2.959E+00	 6.857E+01
  10.560	 1.392E+02	-3.920E-01	-5.773E-01	 3.700E-01	-1.873E-01	 3.145E+00	-4.740E+00	 8.404E+01	 2.960E+01	 2.634E+01	-1.226E-01	 3.045E+01	 3.179E+01	 8.617E+01	 5.403E-02	-1.378E-03	 3.317E+01	 1.192E+00	 2.277E-02	-7.242E-03	-4.969E-04	 4.098E+00	-2.815E+00	 6.878E+01
  10.575	 1.440E+02	-4.202E-01	-5.772E-01	 3.439E-01	-2.748E-01	 2.789E+00	-4.435E+00	 8.430E+01	 2.710E+01	 2.485E+01	-1.063E-01	 2.987E+01	 3.102E+01	 8.562E+01	 5.463E-02	-1.471E-03	 3.382E+01	 2.468E-01	 2.063E-02	-6.654E-03	-3.850E-04	 3.784E+00	-2.674E+00	 6.896E+01
  10.590	 1.488E+02	-4.486E-01	-5.749E-01	 3.129E-01	-3.242E-01	 2.473E+00	-4.119E+00	 8.453E+01	 2.514E+01	 2.326E+01	-9.211E-02	 3.008E+01	 3.107E+01	 8.492E+01	 5.513E-02	-1.595E-03	 3.436E+01	-4.808E-01	 1.898E-02	-6.470E-03	-3.152E-04	 3.518E+00	-2.515E+00	 6.911E+01
  10.605	 1.536E+02	-4.753E-01	-5.705E-01	 2.748E-01	-3.470E-01	 2.284E+00	-3.800E+00	 8.473E+01	 2.401E+01	 2.160E+01	-7.984E-02	 3.064E+01	 3.157E+01	 8.423E+01	 5.554E-02	-1.753E-03	 3.481E+01	-7.737E-01	 1.796E-02	-6.633E-03	-2.811E-04	 3.361E+00	-2.337E+00	 6.925E+01
  10.620	 1.584E+02	-4.991E-01	-5.645E-01	 2.350E-01	-3.791E-01	 2.245E+00	-3.479E+00	 8.491E+01	 2.378E+01	 1.994E+01	-6.995E-02	 3.112E+01	 3.209E+01	 8.371E+01	 5.584E-02	-1.944E-03	 3.517E+01	-6.187E-01	 1.764E-02	-7.042E-03	-2.770E-04	 3.313E+00	-2.139E+00	 6.938E+01
  10.635	 1.632E+02	-5.186E-01	-5.573E-01	 2.039E-01	-4.093E-01	 2.330E+00	-3.172E+00	 8.507E+01	 2.443E+01	 1.849E+01	-6.306E-02	 3.151E+01	 3.258E+01	 8.339E+01	 5.603E-02	-2.159E-03	 3.537E+01	-2.072E-01	 1.804E-02	-7.620E-03	-3.000E-04	 3.406E+00	-1.946E+00	 6.949E+01
  10.650	 1.680E+02	-5.336E-01	-5.496E-01	 1.876E-01	-4.503E-01	 2.532E+00	-2.887E+00	 8.519E+01	 2.582E+01	 1.734E+01	-5.932E-02	 3.200E+01	 3.315E+01	 8.321E+01	 5.610E-02	-2.385E-03	 3.535E+01	 1.743E-01	 1.908E-02	-8.335E-03	-3.478E-04	 3.597E+00	-1.766E+00	 6.958E+01
  10.665	 1.728E+02	-5.444E-01	-5.417E-01	 2.096E-01	-5.148E-01	 2.742E+00	-2.560E+00	 8.529E+01	 2.752E+01	 1.625E+01	-5.849E-02	 3.248E+01	 3.365E+01	 8.309E+01	 5.608E-02	-2.608E-03	 3.509E+01	 2.909E-01	 2.061E-02	-9.197E-03	-4.230E-04	 3.760E+00	-1.559E+00	 6.965E+01
  10.680	 1.776E+02	-5.525E-01	-5.341E-01	 2.959E-01	-2.561E-01	 3.048E+00	-2.268E+00	 8.530E+01	 2.922E+01	 1.532E+01	-5.992E-02	 3.343E+01	 3.450E+01	 8.298E+01	 5.595E-02	-2.818E-03	 3.462E+01	 1.898E-02	 2.239E-02	-1.019E-02	-5.216E-04	 3.941E+00	-1.363E+00	 6.966E+01
  10.695	 1.824E+02	-5.614E-01	-5.270E-01	 2.326E-01	-8.621E-02	 3.028E+00	-1.939E+00	 8.525E+01	 2.961E+01	 1.358E+01	-5.223E-02	 3.401E+01	 3.492E+01	 8.292E+01	 5.573E-02	-3.012E-03	 3.398E+01	-5.430E-01	 2.399E-02	-1.125E-02	-6.348E-04	 3.724E+00	-1.177E+00	 6.959E+01
  10.710	 1.872E+02	-5.735E-01	-5.212E-01	 1.152E-01	 9.979E-03	 3.248E+00	-1.577E+00	 8.514E+01	 3.290E+01	 1.114E+01	-3.460E-02	 3.367E+01	 3.439E+01	 8.399E+01	 5.541E-02	-3.187E-03	 3.353E+01	-1.217E+00	 2.527E-02	-1.227E-02	-7.496E-04	 4.146E+00	-8.588E-01	 6.953E+01
  10.725	 1.920E+02	-5.780E-01	-5.172E-01	 8.185E-02	 1.707E-02	 3.815E+00	-1.279E+00	 8.512E+01	 3.645E+01	 9.703E+00	-2.609E-02	 3.316E+01	 3.371E+01	 8.404E+01	 5.501E-02	-3.343E-03	 3.300E+01	-1.861E+00	 2.735E-02	-1.321E-02	-8.840E-04	 4.502E+00	-6.156E-01	 6.953E+01
  10.740	 1.968E+02	-5.748E-01	-5.149E-01	 1.075E-01	 1.039E-01	 4.347E+00	-1.086E+00	 8.506E+01	 3.993E+01	 9.383E+00	-2.633E-02	 3.361E+01	 3.400E+01	 8.403E+01	 5.456E-02	-3.479E-03	 3.233E+01	-2.355E+00	 2.994E-02	-1.411E-02	-1.036E-03	 4.929E+00	-4.904E-01	 6.950E+01
  10.755	 2.016E+02	-5.680E-01	-5.142E-01	 1.493E-01	 1.799E-01	 4.692E+00	-9.664E-01	 8.490E+01	 4.310E+01	 9.569E+00	-3.051E-02	 3.520E+01	 3.548E+01	 8.415E+01	 5.407E-02	-3.596E-03	 3.152E+01	-2.571E+00	 3.224E-02	-1.503E-02	-1.190E-03	 5.342E+00	-4.340E-01	 6.940E+01
  10.770	 2.064E+02	-5.567E-01	-5.146E-01	 1.929E-01	 2.817E-01	 4.945E+00	-8.582E-01	 8.469E+01	 4.560E+01	 9.784E+00	-3.588E-02	 3.750E+01	 3.772E+01	 8.405E+01	 5.355E-02	-3.693E-03	 3.062E+01	-2.460E+00	 3.422E-02	-1.604E-02	-1.351E-03	 5.603E+00	-3.940E-01	 6.925E+01
  10.785	 2.112E+02	-5.392E-01	-5.164E-01	 2.195E-01	 4.177E-01	 5.186E+00	-7.118E-01	 8.445E+01	 4.746E+01	 9.543E+00	-3.695E-02	 3.983E+01	 4.004E+01	 8.393E+01	 5.302E-02	-3.765E-03	 2.978E+01	-2.085E+00	 3.614E-02	-1.718E-02	-1.524E-03	 5.757E+00	-3.151E-01	 6.907E+01
  10.800	 2.160E+02	-5.175E-01	-5.198E-01	 2.055E-01	 5.625E-01	 5.453E+00	-4.762E-01	 8.421E+01	 4.905E+01	 8.411E+00	-2.693E-02	 4.165E+01	 4.189E+01	 8.424E+01	 5.248E-02	-3.805E-03	 2.913E+01	-1.602E+00	 3.807E-02	-1.844E-02	-1.708E-03	 5.888E+00	-1.453E-01	 6.889E+01
  10.815	 2.208E+02	-4.953E-01	-5.260E-01	 1.502E-01	 6.642E-01	 5.684E+00	-1.331E-01	 8.396E+01	 5.051E+01	 6.322E+00	-4.420E-03	 4.265E+01	 4.293E+01	 8.528E+01	 5.194E-02	-3.805E-03	 2.870E+01	-1.193E+00	 3.984E-02	-1.974E-02	-1.898E-03	 6.018E+00	 1.309E-01	 6.871E+01
  10.830	 2.256E+02	-4.754E-01	-5.359E-01	 7.124E-02	 7.151E-01	 5.895E+00	 2.651E-01	 8.371E+01	 5.173E+01	 3.744E+00	 2.489E-02	 4.294E+01	 4.325E+01	 8.682E+01	 5.142E-02	-3.759E-03	 2.838E+01	-9.987E-01	 4.142E-02	-2.098E-02	-2.085E-03	 6.132E+00	 4.570E-01	 6.854E+01
  10.845	 2.304E+02	-4.602E-01	-5.503E-01	-1.129E-03	 7.347E-01	 6.103E+00	 6.700E-01	 8.346E+01	 5.258E+01	 1.176E+00	 5.296E-02	 4.274E+01	 4.305E+01	 8.860E+01	 5.092E-02	-3.666E-03	 2.805E+01	-1.053E+00	 4.285E-02	-2.205E-02	-2.257E-03	 6.212E+00	 7.821E-01	 6.837E+01
  10.860	 2.352E+02	-4.521E-01	-5.694E-01	-6.338E-02	 7.126E-01	 6.293E+00	 1.048E+00	 8.319E+01	 5.290E+01	-1.132E+00	 7.605E-02	 4.212E+01	 4.243E+01	 9.037E+01	 5.047E-02	-3.531E-03	 2.760E+01	-1.264E+00	 4.407E-02	-2.288E-02	-2.389E-03	 6.243E+00	 1.071E+00	 6.820E+01
  10.875	 2.400E+02	-4.538E-01	-5.932E-01	-1.110E-01	 6.696E-01	 6.425E+00	 1.381E+00	 8.288E+01	 5.272E+01	-3.148E+00	 9.377E-02	 4.127E+01	 4.162E+01	 9.204E+01	 5.007E-02	-3.363E-03	 2.704E+01	-1.465E+00	 4.487E-02	-2.342E-02	-2.457E-03	 6.245E+00	 1.317E+00	 6.801E+01
  10.890	 2.448E+02	-4.663E-01	-6.208E-01	-1.536E-01	 6.056E-01	 6.402E+00	 1.694E+00	 8.254E+01	 5.175E+01	-4.998E+00	 1.068E-01	 4.029E+01	 4.074E+01	 9.358E+01	 4.972E-02	-3.172E-03	 2.642E+01	-1.491E+00	 4.503E-02	-2.366E-02	-2.446E-03	 6.137E+00	 1.528E+00	 6.781E+01
  10.905	 2.496E+02	-4.895E-01	-6.513E-01	-1.928E-01	 5.613E-01	 6.209E+00	 1.964E+00	 8.217E+01	 5.005E+01	-6.661E+00	 1.159E-01	 3.932E+01	 3.994E+01	 9.483E+01	 4.943E-02	-2.970E-03	 2.588E+01	-1.250E+00	 4.440E-02	-2.362E-02	-2.357E-03	 5.962E+00	 1.693E+00	 6.758E+01
  10.920	 2.544E+02	-5.210E-01	-6.836E-01	-2.378E-01	 5.050E-01	 5.819E+00	 2.210E+00	 8.178E+01	 4.751E+01	-8.193E+00	 1.211E-01	 3.831E+01	 3.915E+01	 9.570E+01	 4.918E-02	-2.764E-03	 2.554E+01	-7.548E-01	 4.294E-02	-2.330E-02	-2.203E-03	 5.646E+00	 1.820E+00	 6.735E+01
  10.935	 2.592E+02	-5.578E-01	-7.165E-01	-2.918E-01	 3.838E-01	 5.302E+00	 2.399E+00	 8.138E+01	 4.449E+01	-9.432E+00	 1.221E-01	 3.714E+01	 3.824E+01	 9.596E+01	 4.897E-02	-2.558E-03	 2.553E+01	-1.177E-01	 4.069E-02	-2.266E-02	-2.001E-03	 5.270E+00	 1.894E+00	 6.711E+01
  10.950	 2.640E+02	-5.947E-01	-7.487E-01	-3.269E-01	 2.335E-01	 4.754E+00	 2.489E+00	 8.098E+01	 4.122E+01	-1.002E+01	 1.153E-01	 3.563E+01	 3.694E+01	 9.520E+01	 4.879E-02	-2.354E-03	 2.586E+01	 4.984E-01	 3.791E-02	-2.165E-02	-1.764E-03	 4.870E+00	 1.893E+00	 6.688E+01
  10.965	 2.688E+02	-6.262E-01	-7.790E-01	-3.402E-01	 5.524E-02	 4.367E+00	 2.442E+00	 8.063E+01	 3.801E+01	-9.718E+00	 1.004E-01	 3.388E+01	 3.533E+01	 9.340E+01	 4.862E-02	-2.151E-03	 2.647E+01	 9.133E-01	 3.506E-02	-2.031E-02	-1.516E-03	 4.498E+00	 1.790E+00	 6.669E+01
  10.980	 2.736E+02	-6.497E-01	-8.067E-01	-3.231E-01	-1.497E-01	 4.033E+00	 2.299E+00	 8.030E+01	 3.513E+01	-8.718E+00	 8.171E-02	 3.209E+01	 3.358E+01	 9.095E+01	 4.846E-02	-1.949E-03	 2.718E+01	 1.033E+00	 3.227E-02	-1.875E-02	-1.270E-03	 4.210E+00	 1.622E+00	 6.651E+01
  10.995	 2.784E+02	-6.629E-01	-8.310E-01	-2.880E-01	-3.486E-01	 3.794E+00	 2.067E+00	 8.001E+01	 3.273E+01	-7.163E+00	 6.262E-02	 3.080E+01	 3.223E+01	 8.832E+01	 4.831E-02	-1.750E-03	 2.781E+01	 8.704E-01	 2.967E-02	-1.716E-02	-1.043E-03	 4.017E+00	 1.397E+00	 6.635E+01
  11.010	 2.832E+02	-6.643E-01	-8.516E-01	-2.340E-01	-4.850E-01	 3.596E+00	 1.809E+00	 7.973E+01	 3.073E+01	-5.398E+00	 4.574E-02	 3.018E+01	 3.148E+01	 8.602E+01	 4.816E-02	-1.562E-03	 2.819E+01	 5.578E-01	 2.736E-02	-1.572E-02	-8.468E-04	 3.869E+00	 1.158E+00	 6.619E+01
  11.025	 2.880E+02	-6.533E-01	-8.687E-01	-1.803E-01	-5.312E-01	 3.441E+00	 1.550E+00	 7.946E+01	 2.915E+01	-3.731E+00	 3.299E-02	 3.037E+01	 3.156E+01	 8.443E+01	 4.802E-02	-1.392E-03	 2.825E+01	 2.764E-01	 2.534E-02	-1.456E-02	-6.896E-04	 3.740E+00	 9.328E-01	 6.603E+01
  11.040	 2.928E+02	-6.296E-01	-8.824E-01	-1.420E-01	-5.316E-01	 3.242E+00	 1.332E+00	 7.918E+01	 2.783E+01	-2.422E+00	 2.458E-02	 3.102E+01	 3.213E+01	 8.355E+01	 4.787E-02	-1.247E-03	 2.800E+01	 2.017E-01	 2.367E-02	-1.375E-02	-5.738E-04	 3.588E+00	 7.479E-01	 6.586E+01
  11.055	 2.976E+02	-5.926E-01	-8.932E-01	-1.208E-01	-4.851E-01	 3.139E+00	 1.141E+00	 7.891E+01	 2.711E+01	-1.417E+00	 1.947E-02	 3.201E+01	 3.313E+01	 8.331E+01	 4.771E-02	-1.132E-03	 2.759E+01	 3.950E-01	 2.264E-02	-1.334E-02	-5.024E-04	 3.488E+00	 6.044E-01	 6.570E+01
  11.070	 3.024E+02	-5.431E-01	-9.014E-01	-1.078E-01	-4.246E-01	 3.207E+00	 9.680E-01	 7.865E+01	 2.732E+01	-6.231E-01	 1.664E-02	 3.322E+01	 3.441E+01	 8.357E+01	 4.754E-02	-1.048E-03	 2.718E+01	 8.030E-01	 2.244E-02	-1.332E-02	-4.751E-04	 3.508E+00	 5.045E-01	 6.554E+01
  11.085	 3.072E+02	-4.832E-01	-9.076E-01	-9.247E-02	-3.613E-01	 3.405E+00	 7.761E-01	 7.839E+01	 2.849E+01	 2.211E-01	 1.464E-02	 3.474E+01	 3.603E+01	 8.399E+01	 4.735E-02	-9.919E-04	 2.682E+01	 1.290E+00	 2.299E-02	-1.364E-02	-4.901E-04	 3.666E+00	 4.191E-01	 6.539E+01
  11.100	 3.120E+02	-4.148E-01	-9.118E-01	-5.970E-02	-2.851E-01	 3.704E+00	 5.313E-01	 7.814E+01	 3.035E+01	 1.437E+00	 1.099E-02	 3.664E+01	 3.801E+01	 8.433E+01	 4.715E-02	-9.624E-04	 2.651E+01	 1.704E+00	 2.415E-02	-1.420E-02	-5.504E-04	 3.903E+00	 3.071E-01	 6.525E+01
  11.115	 3.168E+02	-3.399E-01	-9.141E-01	-4.585E-03	-1.809E-01	 3.998E+00	 2.350E-01	 7.791E+01	 3.257E+01	 3.122E+00	 4.077E-03	 3.870E+01	 4.011E+01	 8.449E+01	 4.695E-02	-9.572E-04	 2.620E+01	 1.948E+00	 2.575E-02	-1.487E-02	-6.570E-04	 4.188E+00	 1.492E-01	 6.511E+01
  11.130	 3.216E+02	-2.607E-01	-9.147E-01	 5.815E-02	-6.408E-02	 4.287E+00	-1.095E-01	 7.767E+01	 3.493E+01	 5.147E+00	-5.988E-03	 4.036E+01	 4.177E+01	 8.437E+01	 4.677E-02	-9.763E-04	 2.588E+01	 2.002E+00	 2.766E-02	-1.552E-02	-8.076E-04	 4.498E+00	-5.032E-02	 6.496E+01
  11.145	 3.264E+02	-1.792E-01	-9.138E-01	 1.199E-01	 5.343E-02	 4.536E+00	-4.321E-01	 7.744E+01	 3.730E+01	 7.088E+00	-1.730E-02	 4.106E+01	 4.245E+01	 8.419E+01	 4.660E-02	-1.020E-03	 2.558E+01	 1.901E+00	 2.978E-02	-1.605E-02	-9.869E-04	 4.784E+00	-2.378E-01	 6.480E+01
  11.160	 3.312E+02	-9.810E-02	-9.116E-01	 1.614E-01	 1.486E-01	 4.832E+00	-7.311E-01	 7.721E+01	 3.978E+01	 8.682E+00	-2.691E-02	 4.073E+01	 4.209E+01	 8.403E+01	 4.646E-02	-1.090E-03	 2.534E+01	 1.684E+00	 3.189E-02	-1.640E-02	-1.175E-03	 5.064E+00	-3.868E-01	 6.464E+01
  11.175	 3.360E+02	-1.905E-02	-9.087E-01	 1.853E-01	 2.171E-01	 5.099E+00	-9.767E-01	 7.698E+01	 4.209E+01	 9.831E+00	-3.408E-02	 3.965E+01	 4.100E+01	 8.403E+01	 4.635E-02	-1.186E-03	 2.515E+01	 1.394E+00	 3.376E-02	-1.659E-02	-1.348E-03	 5.294E+00	-4.847E-01	 6.447E+01
  11.190	 3.408E+02	 5.706E-02	-9.052E-01	 1.995E-01	 3.151E-01	 5.336E+00	-1.240E+00	 7.678E+01	 4.412E+01	 1.087E+01	-4.026E-02	 3.855E+01	 3.987E+01	 8.410E+01	 4.629E-02	-1.308E-03	 2.497E+01	 1.058E+00	 3.527E-02	-1.664E-02	-1.489E-03	 5.509E+00	-5.762E-01	 6.433E+01
  11.205	 3.456E+02	 1.302E-01	-9.016E-01	 2.223E-01	 4.200E-01	 5.405E+00	-1.483E+00	 7.660E+01	 4.536E+01	 1.191E+01	-4.843E-02	 3.752E+01	 3.880E+01	 8.422E+01	 4.628E-02	-1.453E-03	 2.480E+01	 7.296E-01	 3.640E-02	-1.660E-02	-1.585E-03	 5.628E+00	-6.853E-01	 6.420E+01
  11.220	 3.504E+02	 2.006E-01	-8.981E-01	 2.526E-01	 5.524E-01	 5.393E+00	-1.760E+00	 7.647E+01	 4.591E+01	 1.319E+01	-5.936E-02	 3.700E+01	 3.824E+01	 8.444E+01	 4.632E-02	-1.620E-03	 2.470E+01	 4.331E-01	 3.721E-02	-1.651E-02	-1.636E-03	 5.657E+00	-8.402E-01	 6.410E+01
  11.235	 3.552E+02	 2.681E-01	-8.950E-01	 2.861E-01	 6.511E-01	 5.319E+00	-2.043E+00	 7.638E+01	 4.591E+01	 1.450E+01	-7.107E-02	 3.676E+01	 3.798E+01	 8.468E+01	 4.640E-02	-1.805E-03	 2.476E+01	 1.977E-01	 3.743E-02	-1.635E-02	-1.654E-03	 5.637E+00	-1.010E+00	 6.402E+01
  11.250	 3.600E+02	 3.322E-01	-8.925E-01	 2.975E-01	 6.547E-01	 5.070E+00	-2.352E+00	 7.628E+01	 4.525E+01	 1.579E+01	-8.046E-02	 3.724E+01	 3.841E+01	 8.449E+01	 4.654E-02	-2.005E-03	 2.495E+01	 1.115E-02	 3.623E-02	-1.586E-02	-1.633E-03	 5.551E+00	-1.198E+00	 6.394E+01
  11.265	 4.786E+00	 3.962E-01	-8.908E-01	 3.253E-01	 6.383E-01	 4.749E+00	-2.667E+00	 7.623E+01	 4.357E+01	 1.725E+01	-9.247E-02	 3.619E+01	 3.738E+01	 8.457E+01	 4.671E-02	-2.213E-03	 2.526E+01	-6.310E-02	 3.466E-02	-1.490E-02	-1.546E-03	 5.368E+00	-1.420E+00	 6.389E+01
  11.280	 9.586E+00	 4.605E-01	-8.902E-01	 3.439E-01	 6.288E-01	 5.100E+00	-2.926E+00	 7.630E+01	 4.277E+01	 1.827E+01	-9.781E-02	 3.383E+01	 3.507E+01	 8.561E+01	 4.692E-02	-2.421E-03	 2.585E+01	-1.503E-01	 3.449E-02	-1.397E-02	-1.444E-03	 5.364E+00	-1.556E+00	 6.393E+01
  11.295	 1.439E+01	 5.152E-01	-8.914E-01	 2.966E-01	 4.541E-01	 5.117E+00	-3.123E+00	 7.635E+01	 4.199E+01	 1.839E+01	-8.953E-02	 3.227E+01	 3.348E+01	 8.554E+01	 4.717E-02	-2.618E-03	 2.630E+01	-4.376E-01	 3.422E-02	-1.334E-02	-1.325E-03	 5.398E+00	-1.606E+00	 6.395E+01
  11.310	 1.919E+01	 5.601E-01	-8.940E-01	 2.484E-01	 2.319E-01	 5.056E+00	-3.314E+00	 7.646E+01	 4.087E+01	 1.846E+01	-8.203E-02	 3.230E+01	 3.340E+01	 8.515E+01	 4.746E-02	-2.800E-03	 2.661E+01	-9.233E-01	 3.330E-02	-1.297E-02	-1.202E-03	 5.389E+00	-1.656E+00	 6.403E+01
  11.325	 2.399E+01	 5.975E-01	-8.974E-01	 2.363E-01	 6.111E-02	 4.816E+00	-3.577E+00	 7.664E+01	 3.869E+01	 1.934E+01	-8.369E-02	 3.343E+01	 3.439E+01	 8.472E+01	 4.778E-02	-2.965E-03	 2.675E+01	-1.440E+00	 3.189E-02	-1.262E-02	-1.090E-03	 5.183E+00	-1.818E+00	 6.415E+01
  11.340	 2.879E+01	 6.280E-01	-9.012E-01	 2.675E-01	-2.477E-02	 4.445E+00	-3.917E+00	 7.684E+01	 3.591E+01	 2.110E+01	-9.266E-02	 3.464E+01	 3.549E+01	 8.441E+01	 4.813E-02	-3.114E-03	 2.690E+01	-1.790E+00	 3.016E-02	-1.206E-02	-9.861E-04	 4.881E+00	-2.089E+00	 6.429E+01
  11.355	 3.359E+01	 6.516E-01	-9.054E-01	 3.089E-01	-1.013E-01	 4.072E+00	-4.309E+00	 7.704E+01	 3.339E+01	 2.339E+01	-1.038E-01	 3.505E+01	 3.586E+01	 8.450E+01	 4.848E-02	-3.249E-03	 2.724E+01	-1.874E+00	 2.838E-02	-1.117E-02	-8.911E-04	 4.616E+00	-2.423E+00	 6.443E+01
  11.370	 3.839E+01	 6.693E-01	-9.108E-01	 3.516E-01	-2.348E-01	 3.834E+00	-4.692E+00	 7.724E+01	 3.188E+01	 2.569E+01	-1.143E-01	 3.423E+01	 3.509E+01	 8.511E+01	 4.881E-02	-3.362E-03	 2.785E+01	-1.738E+00	 2.689E-02	-1.005E-02	-8.056E-04	 4.498E+00	-2.731E+00	 6.457E+01
  11.385	 4.319E+01	 6.830E-01	-9.184E-01	 3.800E-01	-3.904E-01	 3.815E+00	-5.066E+00	 7.745E+01	 3.166E+01	 2.786E+01	-1.243E-01	 3.291E+01	 3.385E+01	 8.625E+01	 4.913E-02	-3.447E-03	 2.861E+01	-1.557E+00	 2.598E-02	-8.920E-03	-7.347E-04	 4.565E+00	-3.003E+00	 6.471E+01
  11.400	 4.799E+01	 6.950E-01	-9.292E-01	 4.194E-01	-5.080E-01	 3.953E+00	-5.424E+00	 7.770E+01	 3.250E+01	 2.995E+01	-1.366E-01	 3.211E+01	 3.311E+01	 8.764E+01	 4.944E-02	-3.497E-03	 2.925E+01	-1.498E+00	 2.570E-02	-8.045E-03	-6.871E-04	 4.760E+00	-3.235E+00	 6.488E+01
  11.415	 5.279E+01	 7.073E-01	-9.436E-01	 4.640E-01	-5.410E-01	 4.129E+00	-5.801E+00	 7.797E+01	 3.388E+01	 3.218E+01	-1.536E-01	 3.282E+01	 3.383E+01	 8.911E+01	 4.975E-02	-3.508E-03	 2.952E+01	-1.622E+00	 2.593E-02	-7.615E-03	-6.679E-04	 4.994E+00	-3.479E+00	 6.506E+01
  11.430	 5.759E+01	 7.212E-01	-9.615E-01	 5.275E-01	-4.830E-01	 4.291E+00	-6.184E+00	 7.828E+01	 3.553E+01	 3.455E+01	-1.766E-01	 3.514E+01	 3.612E+01	 9.044E+01	 5.006E-02	-3.485E-03	 2.935E+01	-1.821E+00	 2.656E-02	-7.670E-03	-6.820E-04	 5.218E+00	-3.732E+00	 6.525E+01
  11.445	 6.239E+01	 7.372E-01	-9.824E-01	 5.943E-01	-3.483E-01	 4.445E+00	-6.566E+00	 7.859E+01	 3.744E+01	 3.696E+01	-2.049E-01	 3.838E+01	 3.935E+01	 9.163E+01	 5.037E-02	-3.437E-03	 2.888E+01	-1.898E+00	 2.751E-02	-8.110E-03	-7.335E-04	 5.437E+00	-3.987E+00	 6.544E+01
  11.460	 6.719E+01	 7.560E-01	-1.005E+00	 6.631E-01	-1.751E-01	 4.668E+00	-6.910E+00	 7.892E+01	 3.974E+01	 3.916E+01	-2.362E-01	 4.148E+01	 4.253E+01	 9.275E+01	 5.069E-02	-3.373E-03	 2.837E+01	-1.683E+00	 2.885E-02	-8.763E-03	-8.252E-04	 5.693E+00	-4.210E+00	 6.564E+01
  11.475	 7.199E+01	 7.770E-01	-1.030E+00	 7.166E-01	 1.781E-04	 4.982E+00	-7.184E+00	 7.924E+01	 4.250E+01	 4.091E+01	-2.670E-01	 4.358E+01	 4.481E+01	 9.376E+01	 5.101E-02	-3.301E-03	 2.803E+01	-1.140E+00	 3.061E-02	-9.474E-03	-9.609E-04	 6.025E+00	-4.367E+00	 6.582E+01
  11.490	 7.679E+01	 7.989E-01	-1.054E+00	 7.495E-01	 1.483E-01	 5.375E+00	-7.372E+00	 7.958E+01	 4.562E+01	 4.206E+01	-2.938E-01	 4.441E+01	 4.588E+01	 9.460E+01	 5.133E-02	-3.224E-03	 2.798E+01	-4.089E-01	 3.275E-02	-1.016E-02	-1.138E-03	 6.407E+00	-4.447E+00	 6.601E+01
  11.505	 8.159E+01	 8.193E-01	-1.079E+00	 7.595E-01	 2.494E-01	 5.796E+00	-7.459E+00	 7.992E+01	 4.880E+01	 4.259E+01	-3.149E-01	 4.433E+01	 4.605E+01	 9.507E+01	 5.167E-02	-3.140E-03	 2.819E+01	 2.693E-01	 3.511E-02	-1.082E-02	-1.345E-03	 6.779E+00	-4.449E+00	 6.619E+01
  11.520	 8.639E+01	 8.361E-01	-1.102E+00	 7.576E-01	 3.217E-01	 6.191E+00	-7.487E+00	 8.025E+01	 5.179E+01	 4.275E+01	-3.311E-01	 4.420E+01	 4.608E+01	 9.515E+01	 5.203E-02	-3.047E-03	 2.857E+01	 6.665E-01	 3.746E-02	-1.152E-02	-1.574E-03	 7.117E+00	-4.410E+00	 6.638E+01
  11.535	 9.119E+01	 8.470E-01	-1.123E+00	 7.528E-01	 3.816E-01	 6.520E+00	-7.455E+00	 8.060E+01	 5.426E+01	 4.265E+01	-3.439E-01	 4.456E+01	 4.648E+01	 9.472E+01	 5.242E-02	-2.947E-03	 2.896E+01	 7.008E-01	 3.965E-02	-1.231E-02	-1.805E-03	 7.372E+00	-4.342E+00	 6.657E+01
  11.550	 9.599E+01	 8.502E-01	-1.141E+00	 7.536E-01	 4.600E-01	 6.752E+00	-7.387E+00	 8.093E+01	 5.612E+01	 4.240E+01	-3.534E-01	 4.562E+01	 4.749E+01	 9.387E+01	 5.286E-02	-2.847E-03	 2.931E+01	 4.605E-01	 4.155E-02	-1.320E-02	-2.022E-03	 7.559E+00	-4.266E+00	 6.676E+01
  11.565	 1.008E+02	 8.435E-01	-1.156E+00	 7.572E-01	 5.543E-01	 6.850E+00	-7.258E+00	 8.125E+01	 5.736E+01	 4.187E+01	-3.587E-01	 4.706E+01	 4.883E+01	 9.266E+01	 5.334E-02	-2.755E-03	 2.958E+01	 1.531E-01	 4.304E-02	-1.411E-02	-2.207E-03	 7.659E+00	-4.163E+00	 6.694E+01
  11.580	 1.056E+02	 8.257E-01	-1.167E+00	 7.552E-01	 6.632E-01	 6.848E+00	-7.096E+00	 8.154E+01	 5.799E+01	 4.110E+01	-3.581E-01	 4.844E+01	 5.013E+01	 9.138E+01	 5.386E-02	-2.682E-03	 2.987E+01	-1.327E-02	 4.405E-02	-1.494E-02	-2.341E-03	 7.672E+00	-4.050E+00	 6.711E+01
  11.595	 1.104E+02	 7.969E-01	-1.174E+00	 7.342E-01	 7.566E-01	 6.741E+00	-6.886E+00	 8.182E+01	 5.802E+01	 3.995E+01	-3.496E-01	 4.912E+01	 5.081E+01	 9.018E+01	 5.441E-02	-2.634E-03	 3.026E+01	 8.266E-02	 4.456E-02	-1.556E-02	-2.412E-03	 7.600E+00	-3.908E+00	 6.727E+01
  11.610	 1.152E+02	 7.579E-01	-1.177E+00	 6.912E-01	 7.853E-01	 6.612E+00	-6.629E+00	 8.209E+01	 5.758E+01	 3.838E+01	-3.313E-01	 4.860E+01	 5.038E+01	 8.920E+01	 5.499E-02	-2.613E-03	 3.083E+01	 4.168E-01	 4.454E-02	-1.584E-02	-2.405E-03	 7.473E+00	-3.731E+00	 6.743E+01
  11.625	 1.200E+02	 7.100E-01	-1.176E+00	 6.381E-01	 7.493E-01	 6.407E+00	-6.329E+00	 8.237E+01	 5.650E+01	 3.645E+01	-3.058E-01	 4.680E+01	 4.873E+01	 8.855E+01	 5.558E-02	-2.615E-03	 3.157E+01	 8.268E-01	 4.390E-02	-1.571E-02	-2.315E-03	 7.269E+00	-3.519E+00	 6.759E+01
  11.640	 1.248E+02	 6.551E-01	-1.173E+00	 5.857E-01	 6.904E-01	 6.150E+00	-6.000E+00	 8.266E+01	 5.472E+01	 3.446E+01	-2.783E-01	 4.428E+01	 4.636E+01	 8.811E+01	 5.619E-02	-2.634E-03	 3.240E+01	 1.089E+00	 4.260E-02	-1.519E-02	-2.155E-03	 6.996E+00	-3.311E+00	 6.778E+01
  11.655	 1.296E+02	 5.950E-01	-1.168E+00	 5.509E-01	 6.316E-01	 5.816E+00	-5.689E+00	 8.297E+01	 5.219E+01	 3.266E+01	-2.527E-01	 4.171E+01	 4.385E+01	 8.791E+01	 5.679E-02	-2.665E-03	 3.325E+01	 1.044E+00	 4.071E-02	-1.439E-02	-1.944E-03	 6.665E+00	-3.142E+00	 6.798E+01
  11.670	 1.344E+02	 5.308E-01	-1.160E+00	 5.287E-01	 5.832E-01	 5.379E+00	-5.386E+00	 8.329E+01	 4.893E+01	 3.109E+01	-2.300E-01	 3.956E+01	 4.169E+01	 8.769E+01	 5.737E-02	-2.706E-03	 3.405E+01	 6.751E-01	 3.838E-02	-1.345E-02	-1.705E-03	 6.222E+00	-3.006E+00	 6.818E+01
  11.685	 1.392E+02	 4.633E-01	-1.150E+00	 4.987E-01	 5.084E-01	 4.851E+00	-5.081E+00	 8.359E+01	 4.526E+01	 2.955E+01	-2.070E-01	 3.793E+01	 3.997E+01	 8.738E+01	 5.792E-02	-2.758E-03	 3.478E+01	 1.103E-01	 3.577E-02	-1.253E-02	-1.460E-03	 5.747E+00	-2.885E+00	 6.838E+01
  11.700	 1.440E+02	 3.936E-01	-1.138E+00	 4.533E-01	 3.840E-01	 4.372E+00	-4.749E+00	 8.385E+01	 4.171E+01	 2.778E+01	-1.812E-01	 3.668E+01	 3.863E+01	 8.687E+01	 5.842E-02	-2.826E-03	 3.549E+01	-4.548E-01	 3.315E-02	-1.173E-02	-1.230E-03	 5.311E+00	-2.735E+00	 6.856E+01
  11.715	 1.488E+02	 3.231E-01	-1.123E+00	 3.972E-01	 2.206E-01	 3.952E+00	-4.375E+00	 8.410E+01	 3.850E+01	 2.569E+01	-1.534E-01	 3.562E+01	 3.749E+01	 8.620E+01	 5.885E-02	-2.914E-03	 3.617E+01	-8.463E-01	 3.074E-02	-1.114E-02	-1.031E-03	 4.928E+00	-2.538E+00	 6.873E+01
  11.730	 1.536E+02	 2.530E-01	-1.107E+00	 3.334E-01	 3.776E-02	 3.664E+00	-3.986E+00	 8.433E+01	 3.587E+01	 2.343E+01	-1.264E-01	 3.489E+01	 3.673E+01	 8.554E+01	 5.919E-02	-3.022E-03	 3.679E+01	-9.978E-01	 2.868E-02	-1.077E-02	-8.732E-04	 4.633E+00	-2.311E+00	 6.889E+01
  11.745	 1.584E+02	 1.843E-01	-1.090E+00	 2.758E-01	-1.402E-01	 3.432E+00	-3.602E+00	 8.454E+01	 3.367E+01	 2.125E+01	-1.033E-01	 3.442E+01	 3.627E+01	 8.500E+01	 5.943E-02	-3.148E-03	 3.727E+01	-9.411E-01	 2.706E-02	-1.061E-02	-7.557E-04	 4.388E+00	-2.083E+00	 6.904E+01
  11.760	 1.632E+02	 1.173E-01	-1.073E+00	 2.310E-01	-2.825E-01	 3.270E+00	-3.241E+00	 8.473E+01	 3.203E+01	 1.934E+01	-8.593E-02	 3.433E+01	 3.620E+01	 8.468E+01	 5.958E-02	-3.284E-03	 3.756E+01	-7.937E-01	 2.593E-02	-1.063E-02	-6.761E-04	 4.226E+00	-1.875E+00	 6.919E+01
  11.775	 1.680E+02	 5.180E-02	-1.055E+00	 2.015E-01	-3.782E-01	 3.096E+00	-2.888E+00	 8.491E+01	 3.085E+01	 1.773E+01	-7.408E-02	 3.456E+01	 3.643E+01	 8.456E+01	 5.961E-02	-3.423E-03	 3.762E+01	-6.873E-01	 2.522E-02	-1.080E-02	-6.272E-04	 4.094E+00	-1.689E+00	 6.932E+01
  11.790	 1.728E+02	-1.309E-02	-1.039E+00	 2.085E-01	-4.565E-01	 2.956E+00	-2.543E+00	 8.504E+01	 3.011E+01	 1.636E+01	-6.752E-02	 3.500E+01	 3.684E+01	 8.473E+01	 5.953E-02	-3.557E-03	 3.747E+01	-7.172E-01	 2.475E-02	-1.106E-02	-6.056E-04	 3.933E+00	-1.500E+00	 6.942E+01
  11.805	 1.776E+02	-7.724E-02	-1.023E+00	 2.927E-01	-1.436E-01	 3.014E+00	-2.271E+00	 8.509E+01	 2.944E+01	 1.537E+01	-6.553E-02	 3.571E+01	 3.747E+01	 8.486E+01	 5.933E-02	-3.682E-03	 3.714E+01	-9.144E-01	 2.452E-02	-1.137E-02	-6.059E-04	 3.763E+00	-1.356E+00	 6.946E+01
  11.820	 1.824E+02	-1.419E-01	-1.010E+00	 2.098E-01	 6.108E-02	 2.859E+00	-1.984E+00	 8.507E+01	 2.852E+01	 1.372E+01	-5.390E-02	 3.568E+01	 3.733E+01	 8.495E+01	 5.901E-02	-3.795E-03	 3.665E+01	-1.191E+00	 2.443E-02	-1.171E-02	-6.228E-04	 3.529E+00	-1.222E+00	 6.943E+01
  11.835	 1.872E+02	-2.080E-01	-9.981E-01	 3.243E-02	-1.036E-01	 2.922E+00	-1.589E+00	 8.502E+01	 3.048E+01	 1.102E+01	-3.264E-02	 3.410E+01	 3.569E+01	 8.598E+01	 5.857E-02	-3.893E-03	 3.625E+01	-1.474E+00	 2.447E-02	-1.205E-02	-6.491E-04	 3.787E+00	-9.065E-01	 6.941E+01
  11.850	 1.920E+02	-2.656E-01	-9.885E-01	-5.290E-03	-2.793E-01	 3.477E+00	-1.284E+00	 8.503E+01	 3.378E+01	 9.611E+00	-2.474E-02	 3.290E+01	 3.439E+01	 8.614E+01	 5.803E-02	-3.972E-03	 3.570E+01	-1.814E+00	 2.562E-02	-1.246E-02	-7.033E-04	 4.233E+00	-6.548E-01	 6.945E+01
  11.865	 1.968E+02	-3.116E-01	-9.808E-01	 4.610E-02	-2.921E-01	 4.166E+00	-1.188E+00	 8.501E+01	 3.707E+01	 1.004E+01	-3.075E-02	 3.399E+01	 3.531E+01	 8.581E+01	 5.741E-02	-4.030E-03	 3.485E+01	-2.199E+00	 2.781E-02	-1.309E-02	-7.935E-04	 4.772E+00	-6.104E-01	 6.946E+01
  11.880	 2.016E+02	-3.507E-01	-9.742E-01	 1.310E-01	-2.456E-01	 4.671E+00	-1.167E+00	 8.490E+01	 3.977E+01	 1.102E+01	-4.205E-02	 3.700E+01	 3.815E+01	 8.563E+01	 5.673E-02	-4.070E-03	 3.369E+01	-2.455E+00	 3.003E-02	-1.400E-02	-9.116E-04	 5.168E+00	-6.408E-01	 6.940E+01
  11.895	 2.064E+02	-3.848E-01	-9.682E-01	 1.991E-01	-1.163E-01	 4.885E+00	-1.106E+00	 8.471E+01	 4.165E+01	 1.153E+01	-5.007E-02	 4.087E+01	 4.189E+01	 8.566E+01	 5.601E-02	-4.096E-03	 3.237E+01	-2.416E+00	 3.188E-02	-1.521E-02	-1.051E-03	 5.381E+00	-6.454E-01	 6.927E+01
  11.910	 2.112E+02	-4.137E-01	-9.630E-01	 2.139E-01	 7.891E-02	 4.976E+00	-9.090E-01	 8.449E+01	 4.303E+01	 1.084E+01	-4.753E-02	 4.397E+01	 4.496E+01	 8.599E+01	 5.526E-02	-4.107E-03	 3.116E+01	-2.029E+00	 3.351E-02	-1.658E-02	-1.206E-03	 5.449E+00	-5.337E-01	 6.910E+01
  11.925	 2.160E+02	-4.384E-01	-9.591E-01	 1.696E-01	 2.824E-01	 5.049E+00	-5.626E-01	 8.425E+01	 4.440E+01	 8.810E+00	-3.032E-02	 4.522E+01	 4.626E+01	 8.677E+01	 5.447E-02	-4.098E-03	 3.027E+01	-1.418E+00	 3.513E-02	-1.794E-02	-1.370E-03	 5.492E+00	-2.764E-01	 6.892E+01
  11.940	 2.208E+02	-4.603E-01	-9.577E-01	 7.621E-02	 4.243E-01	 5.255E+00	-1.097E-01	 8.400E+01	 4.620E+01	 5.838E+00	-7.627E-04	 4.445E+01	 4.560E+01	 8.786E+01	 5.366E-02	-4.060E-03	 2.975E+01	-8.437E-01	 3.686E-02	-1.912E-02	-1.529E-03	 5.597E+00	 9.579E-02	 6.875E+01
  11.955	 2.256E+02	-4.813E-01	-9.597E-01	-2.991E-02	 4.810E-01	 5.581E+00	 3.533E-01	 8.374E+01	 4.843E+01	 2.725E+00	 3.332E-02	 4.256E+01	 4.378E+01	 8.908E+01	 5.285E-02	-3.984E-03	 2.942E+01	-5.707E-01	 3.865E-02	-2.007E-02	-1.678E-03	 5.825E+00	 4.944E-01	 6.858E+01
  11.970	 2.304E+02	-5.022E-01	-9.654E-01	-1.092E-01	 4.731E-01	 5.938E+00	 7.473E-01	 8.348E+01	 5.055E+01	 2.499E-01	 6.113E-02	 4.077E+01	 4.197E+01	 9.013E+01	 5.205E-02	-3.865E-03	 2.900E+01	-7.209E-01	 4.041E-02	-2.082E-02	-1.817E-03	 6.067E+00	 8.280E-01	 6.842E+01
  11.985	 2.352E+02	-5.235E-01	-9.748E-01	-1.415E-01	 4.409E-01	 6.249E+00	 1.011E+00	 8.320E+01	 5.215E+01	-1.145E+00	 7.608E-02	 4.020E+01	 4.130E+01	 9.096E+01	 5.129E-02	-3.707E-03	 2.829E+01	-1.201E+00	 4.200E-02	-2.149E-02	-1.953E-03	 6.266E+00	 1.035E+00	 6.826E+01
  12.000	 2.400E+02	-5.457E-01	-9.871E-01	-1.357E-01	 4.162E-01	 6.489E+00	 1.149E+00	 8.290E+01	 5.309E+01	-1.565E+00	 7.893E-02	 4.127E+01	 4.223E+01	 9.167E+01	 5.059E-02	-3.521E-03	 2.730E+01	-1.725E+00	 4.330E-02	-2.218E-02	-2.089E-03	 6.422E+00	 1.117E+00	 6.808E+01
  12.015	 2.448E+02	-5.692E-01	-1.002E+00	-1.169E-01	 3.885E-01	 6.590E+00	 1.239E+00	 8.258E+01	 5.339E+01	-1.607E+00	 7.658E-02	 4.342E+01	 4.431E+01	 9.251E+01	 4.996E-02	-3.324E-03	 2.620E+01	-1.948E+00	 4.426E-02	-2.294E-02	-2.218E-03	 6.480E+00	 1.144E+00	 6.789E+01
  12.030	 2.496E+02	-5.947E-01	-1.017E+00	-1.102E-01	 3.533E-01	 6.614E+00	 1.334E+00	 8.222E+01	 5.342E+01	-1.812E+00	 7.656E-02	 4.580E+01	 4.675E+01	 9.354E+01	 4.939E-02	-3.129E-03	 2.522E+01	-1.640E+00	 4.491E-02	-2.372E-02	-2.328E-03	 6.498E+00	 1.178E+00	 6.766E+01
  12.045	 2.544E+02	-6.220E-01	-1.034E+00	-1.262E-01	 3.069E-01	 6.626E+00	 1.461E+00	 8.183E+01	 5.343E+01	-2.426E+00	 8.195E-02	 4.751E+01	 4.868E+01	 9.457E+01	 4.889E-02	-2.944E-03	 2.455E+01	-8.056E-01	 4.535E-02	-2.443E-02	-2.406E-03	 6.490E+00	 1.253E+00	 6.742E+01
  12.060	 2.592E+02	-6.499E-01	-1.050E+00	-1.583E-01	 2.672E-01	 6.653E+00	 1.596E+00	 8.142E+01	 5.352E+01	-3.273E+00	 9.066E-02	 4.821E+01	 4.969E+01	 9.529E+01	 4.847E-02	-2.769E-03	 2.426E+01	 3.106E-01	 4.565E-02	-2.494E-02	-2.441E-03	 6.498E+00	 1.353E+00	 6.717E+01
  12.075	 2.640E+02	-6.769E-01	-1.066E+00	-1.872E-01	 2.596E-01	 6.657E+00	 1.694E+00	 8.100E+01	 5.349E+01	-3.948E+00	 9.753E-02	 4.802E+01	 4.979E+01	 9.537E+01	 4.811E-02	-2.600E-03	 2.427E+01	 1.341E+00	 4.578E-02	-2.516E-02	-2.434E-03	 6.486E+00	 1.429E+00	 6.692E+01
  12.090	 2.688E+02	-7.012E-01	-1.079E+00	-1.945E-01	 2.778E-01	 6.595E+00	 1.710E+00	 8.059E+01	 5.317E+01	-4.087E+00	 9.830E-02	 4.745E+01	 4.940E+01	 9.474E+01	 4.784E-02	-2.432E-03	 2.444E+01	 1.961E+00	 4.563E-02	-2.508E-02	-2.395E-03	 6.433E+00	 1.435E+00	 6.667E+01
  12.105	 2.736E+02	-7.205E-01	-1.091E+00	-1.809E-01	 3.086E-01	 6.433E+00	 1.631E+00	 8.020E+01	 5.244E+01	-3.546E+00	 9.146E-02	 4.674E+01	 4.872E+01	 9.338E+01	 4.765E-02	-2.264E-03	 2.467E+01	 2.039E+00	 4.512E-02	-2.471E-02	-2.337E-03	 6.333E+00	 1.352E+00	 6.644E+01
  12.120	 2.784E+02	-7.323E-01	-1.099E+00	-1.474E-01	 3.277E-01	 6.229E+00	 1.479E+00	 7.983E+01	 5.141E+01	-2.477E+00	 7.842E-02	 4.605E+01	 4.792E+01	 9.159E+01	 4.754E-02	-2.102E-03	 2.491E+01	 1.659E+00	 4.429E-02	-2.411E-02	-2.274E-03	 6.201E+00	 1.204E+00	 6.621E+01
  12.135	 2.832E+02	-7.347E-01	-1.103E+00	-1.093E-01	 3.248E-01	 6.018E+00	 1.295E+00	 7.949E+01	 5.017E+01	-1.192E+00	 6.282E-02	 4.519E+01	 4.690E+01	 8.965E+01	 4.751E-02	-1.955E-03	 2.517E+01	 1.072E+00	 4.330E-02	-2.339E-02	-2.213E-03	 6.051E+00	 1.029E+00	 6.600E+01
  12.150	 2.880E+02	-7.269E-01	-1.103E+00	-7.750E-02	 3.054E-01	 5.846E+00	 1.115E+00	 7.917E+01	 4.890E+01	-3.775E-02	 4.903E-02	 4.431E+01	 4.587E+01	 8.800E+01	 4.755E-02	-1.835E-03	 2.547E+01	 5.541E-01	 4.231E-02	-2.266E-02	-2.160E-03	 5.908E+00	 8.690E-01	 6.580E+01
  12.165	 2.928E+02	-7.093E-01	-1.098E+00	-6.744E-02	 2.615E-01	 5.711E+00	 9.722E-01	 7.886E+01	 4.772E+01	 7.202E-01	 4.041E-02	 4.336E+01	 4.486E+01	 8.687E+01	 4.764E-02	-1.750E-03	 2.583E+01	 3.173E-01	 4.139E-02	-2.201E-02	-2.108E-03	 5.797E+00	 7.554E-01	 6.560E+01
  12.180	 2.976E+02	-6.832E-01	-1.090E+00	-7.455E-02	 1.837E-01	 5.590E+00	 8.674E-01	 7.856E+01	 4.655E+01	 1.054E+00	 3.655E-02	 4.243E+01	 4.397E+01	 8.625E+01	 4.779E-02	-1.706E-03	 2.621E+01	 4.283E-01	 4.048E-02	-2.146E-02	-2.045E-03	 5.702E+00	 6.894E-01	 6.541E+01
  12.195	 3.024E+02	-6.501E-01	-1.077E+00	-8.401E-02	 1.056E-01	 5.385E+00	 7.993E-01	 7.827E+01	 4.507E+01	 1.117E+00	 3.451E-02	 4.147E+01	 4.314E+01	 8.597E+01	 4.799E-02	-1.701E-03	 2.655E+01	 8.036E-01	 3.952E-02	-2.097E-02	-1.966E-03	 5.518E+00	 6.504E-01	 6.523E+01
  12.210	 3.072E+02	-6.118E-01	-1.061E+00	-8.810E-02	 6.499E-02	 5.150E+00	 7.006E-01	 7.799E+01	 4.333E+01	 1.298E+00	 3.127E-02	 4.085E+01	 4.266E+01	 8.576E+01	 4.822E-02	-1.731E-03	 2.685E+01	 1.243E+00	 3.843E-02	-2.050E-02	-1.871E-03	 5.283E+00	 5.907E-01	 6.505E+01
  12.225	 3.120E+02	-5.701E-01	-1.041E+00	-7.400E-02	 5.527E-02	 4.868E+00	 5.691E-01	 7.774E+01	 4.137E+01	 1.759E+00	 2.501E-02	 4.044E+01	 4.236E+01	 8.547E+01	 4.848E-02	-1.790E-03	 2.716E+01	 1.552E+00	 3.718E-02	-1.998E-02	-1.763E-03	 4.982E+00	 4.970E-01	 6.490E+01
  12.240	 3.168E+02	-5.269E-01	-1.018E+00	-5.049E-02	 7.581E-02	 4.556E+00	 3.680E-01	 7.751E+01	 3.946E+01	 2.642E+00	 1.632E-02	 4.031E+01	 4.225E+01	 8.493E+01	 4.875E-02	-1.873E-03	 2.752E+01	 1.599E+00	 3.572E-02	-1.936E-02	-1.644E-03	 4.713E+00	 3.488E-01	 6.476E+01
  12.255	 3.216E+02	-4.834E-01	-9.910E-01	-1.255E-02	 1.099E-01	 4.254E+00	 1.217E-01	 7.731E+01	 3.775E+01	 3.867E+00	 5.695E-03	 3.991E+01	 4.181E+01	 8.415E+01	 4.902E-02	-1.977E-03	 2.795E+01	 1.379E+00	 3.420E-02	-1.856E-02	-1.515E-03	 4.490E+00	 1.604E-01	 6.464E+01
  12.270	 3.264E+02	-4.407E-01	-9.608E-01	 2.814E-02	 1.399E-01	 3.957E+00	-1.395E-01	 7.713E+01	 3.631E+01	 5.258E+00	-5.426E-03	 3.882E+01	 4.063E+01	 8.320E+01	 4.929E-02	-2.101E-03	 2.844E+01	 9.648E-01	 3.279E-02	-1.757E-02	-1.378E-03	 4.310E+00	-3.850E-02	 6.453E+01
  12.285	 3.312E+02	-3.999E-01	-9.277E-01	 6.468E-02	 1.438E-01	 3.746E+00	-4.020E-01	 7.698E+01	 3.533E+01	 6.623E+00	-1.537E-02	 3.717E+01	 3.886E+01	 8.229E+01	 4.953E-02	-2.246E-03	 2.897E+01	 4.478E-01	 3.155E-02	-1.647E-02	-1.239E-03	 4.185E+00	-2.238E-01	 6.443E+01
  12.300	 3.360E+02	-3.619E-01	-8.921E-01	 8.992E-02	 1.232E-01	 3.590E+00	-6.611E-01	 7.683E+01	 3.474E+01	 7.912E+00	-2.384E-02	 3.528E+01	 3.686E+01	 8.157E+01	 4.976E-02	-2.411E-03	 2.946E+01	-7.530E-02	 3.046E-02	-1.534E-02	-1.109E-03	 4.117E+00	-3.943E-01	 6.434E+01
  12.315	 3.408E+02	-3.266E-01	-8.548E-01	 1.086E-01	 8.307E-02	 3.536E+00	-9.372E-01	 7.671E+01	 3.434E+01	 9.190E+00	-3.191E-02	 3.378E+01	 3.525E+01	 8.115E+01	 4.996E-02	-2.593E-03	 2.980E+01	-5.386E-01	 2.948E-02	-1.429E-02	-9.963E-04	 4.073E+00	-5.589E-01	 6.426E+01
  12.330	 3.456E+02	-2.934E-01	-8.163E-01	 1.366E-01	 6.564E-02	 3.477E+00	-1.252E+00	 7.660E+01	 3.391E+01	 1.065E+01	-4.120E-02	 3.296E+01	 3.434E+01	 8.100E+01	 5.014E-02	-2.789E-03	 2.992E+01	-8.931E-01	 2.870E-02	-1.344E-02	-9.075E-04	 4.038E+00	-7.409E-01	 6.419E+01
  12.345	 3.504E+02	-2.612E-01	-7.775E-01	 1.747E-01	 8.720E-02	 3.425E+00	-1.581E+00	 7.652E+01	 3.329E+01	 1.227E+01	-5.157E-02	 3.270E+01	 3.401E+01	 8.111E+01	 5.029E-02	-2.995E-03	 2.985E+01	-1.114E+00	 2.829E-02	-1.285E-02	-8.506E-04	 4.009E+00	-9.528E-01	 6.413E+01
  12.360	 3.552E+02	-2.297E-01	-7.390E-01	 2.041E-01	 9.581E-02	 3.377E+00	-1.897E+00	 7.646E+01	 3.266E+01	 1.374E+01	-5.991E-02	 3.300E+01	 3.424E+01	 8.141E+01	 5.041E-02	-3.205E-03	 2.970E+01	-1.230E+00	 2.792E-02	-1.250E-02	-8.242E-04	 3.974E+00	-1.150E+00	 6.410E+01
  12.375	 3.600E+02	-1.999E-01	-7.013E-01	 2.179E-01	 5.631E-02	 3.056E+00	-2.198E+00	 7.640E+01	 3.154E+01	 1.500E+01	-6.560E-02	 3.364E+01	 3.482E+01	 8.126E+01	 5.049E-02	-3.412E-03	 2.951E+01	-1.284E+00	 2.674E-02	-1.206E-02	-8.128E-04	 3.897E+00	-1.343E+00	 6.405E+01
  12.390	 4.784E+00	-1.683E-01	-6.646E-01	 2.455E-01	 5.470E-02	 3.125E+00	-2.482E+00	 7.644E+01	 3.075E+01	 1.627E+01	-7.166E-02	 3.261E+01	 3.376E+01	 8.181E+01	 5.053E-02	-3.608E-03	 2.952E+01	-1.278E+00	 2.624E-02	-1.148E-02	-8.005E-04	 3.863E+00	-1.516E+00	 6.408E+01
  12.405	 9.584E+00	-1.410E-01	-6.292E-01	 2.391E-01	-2.478E-03	 3.603E+00	-2.696E+00	 7.654E+01	 3.155E+01	 1.681E+01	-7.039E-02	 3.116E+01	 3.225E+01	 8.215E+01	 5.052E-02	-3.784E-03	 2.973E+01	-1.386E+00	 2.706E-02	-1.115E-02	-8.005E-04	 4.061E+00	-1.572E+00	 6.414E+01
  12.420	 1.438E+01	-1.261E-01	-5.954E-01	 1.936E-01	-1.779E-01	 3.738E+00	-2.883E+00	 7.661E+01	 3.267E+01	 1.694E+01	-6.613E-02	 3.061E+01	 3.157E+01	 8.151E+01	 5.047E-02	-3.931E-03	 2.978E+01	-1.717E+00	 2.765E-02	-1.110E-02	-7.973E-04	 4.312E+00	-1.587E+00	 6.420E+01
  12.435	 1.918E+01	-1.198E-01	-5.629E-01	 1.951E-01	-2.623E-01	 3.860E+00	-3.139E+00	 7.674E+01	 3.352E+01	 1.781E+01	-6.949E-02	 3.155E+01	 3.230E+01	 8.105E+01	 5.040E-02	-4.044E-03	 2.965E+01	-2.205E+00	 2.797E-02	-1.121E-02	-8.025E-04	 4.501E+00	-1.687E+00	 6.429E+01
  12.450	 2.398E+01	-1.191E-01	-5.314E-01	 2.490E-01	-2.235E-01	 3.851E+00	-3.481E+00	 7.690E+01	 3.346E+01	 1.963E+01	-8.167E-02	 3.315E+01	 3.368E+01	 8.087E+01	 5.032E-02	-4.126E-03	 2.933E+01	-2.642E+00	 2.814E-02	-1.127E-02	-8.179E-04	 4.518E+00	-1.909E+00	 6.440E+01
  12.465	 2.878E+01	-1.244E-01	-5.010E-01	 3.213E-01	-1.128E-01	 3.764E+00	-3.854E+00	 7.706E+01	 3.300E+01	 2.183E+01	-9.730E-02	 3.449E+01	 3.485E+01	 8.090E+01	 5.022E-02	-4.178E-03	 2.896E+01	-2.847E+00	 2.818E-02	-1.116E-02	-8.394E-04	 4.439E+00	-2.185E+00	 6.451E+01
  12.480	 3.358E+01	-1.366E-01	-4.723E-01	 3.703E-01	-3.232E-02	 3.685E+00	-4.192E+00	 7.721E+01	 3.293E+01	 2.372E+01	-1.108E-01	 3.482E+01	 3.509E+01	 8.108E+01	 5.009E-02	-4.200E-03	 2.870E+01	-2.759E+00	 2.816E-02	-1.087E-02	-8.618E-04	 4.412E+00	-2.424E+00	 6.460E+01
  12.495	 3.838E+01	-1.542E-01	-4.460E-01	 3.811E-01	-3.402E-02	 3.736E+00	-4.482E+00	 7.737E+01	 3.369E+01	 2.514E+01	-1.208E-01	 3.425E+01	 3.450E+01	 8.148E+01	 4.994E-02	-4.185E-03	 2.861E+01	-2.476E+00	 2.836E-02	-1.052E-02	-8.868E-04	 4.521E+00	-2.597E+00	 6.469E+01
  12.510	 4.318E+01	-1.745E-01	-4.230E-01	 3.799E-01	-7.165E-02	 3.981E+00	-4.752E+00	 7.758E+01	 3.547E+01	 2.637E+01	-1.302E-01	 3.373E+01	 3.398E+01	 8.212E+01	 4.978E-02	-4.128E-03	 2.862E+01	-2.180E+00	 2.909E-02	-1.033E-02	-9.261E-04	 4.801E+00	-2.726E+00	 6.483E+01
  12.525	 4.798E+01	-1.954E-01	-4.036E-01	 3.786E-01	-1.441E-01	 4.315E+00	-5.045E+00	 7.785E+01	 3.795E+01	 2.789E+01	-1.439E-01	 3.452E+01	 3.472E+01	 8.285E+01	 4.960E-02	-4.025E-03	 2.855E+01	-2.013E+00	 3.047E-02	-1.050E-02	-9.958E-04	 5.193E+00	-2.873E+00	 6.501E+01
  12.540	 5.278E+01	-2.160E-01	-3.881E-01	 4.136E-01	-2.022E-01	 4.704E+00	-5.418E+00	 7.815E+01	 4.108E+01	 3.014E+01	-1.677E-01	 3.752E+01	 3.760E+01	 8.358E+01	 4.944E-02	-3.876E-03	 2.828E+01	-1.990E+00	 3.235E-02	-1.116E-02	-1.108E-03	 5.651E+00	-3.085E+00	 6.522E+01
  12.555	 5.758E+01	-2.348E-01	-3.765E-01	 4.805E-01	-2.174E-01	 5.131E+00	-5.901E+00	 7.846E+01	 4.456E+01	 3.335E+01	-2.062E-01	 4.271E+01	 4.265E+01	 8.455E+01	 4.931E-02	-3.689E-03	 2.776E+01	-1.964E+00	 3.455E-02	-1.222E-02	-1.269E-03	 6.124E+00	-3.401E+00	 6.543E+01
  12.570	 6.238E+01	-2.498E-01	-3.685E-01	 5.991E-01	-1.416E-01	 5.569E+00	-6.460E+00	 7.875E+01	 4.827E+01	 3.728E+01	-2.598E-01	 4.879E+01	 4.864E+01	 8.594E+01	 4.922E-02	-3.478E-03	 2.707E+01	-1.705E+00	 3.692E-02	-1.346E-02	-1.480E-03	 6.612E+00	-3.788E+00	 6.562E+01
  12.585	 6.718E+01	-2.591E-01	-3.639E-01	 7.298E-01	 7.192E-03	 6.054E+00	-7.033E+00	 7.901E+01	 5.213E+01	 4.136E+01	-3.240E-01	 5.413E+01	 5.402E+01	 8.791E+01	 4.919E-02	-3.255E-03	 2.633E+01	-1.061E+00	 3.935E-02	-1.457E-02	-1.734E-03	 7.094E+00	-4.189E+00	 6.578E+01
  12.600	 7.198E+01	-2.614E-01	-3.626E-01	 8.529E-01	 2.004E-01	 6.469E+00	-7.520E+00	 7.926E+01	 5.589E+01	 4.483E+01	-3.891E-01	 5.725E+01	 5.733E+01	 9.028E+01	 4.922E-02	-3.028E-03	 2.568E+01	-6.958E-02	 4.171E-02	-1.534E-02	-2.011E-03	 7.559E+00	-4.522E+00	 6.591E+01
  12.615	 7.678E+01	-2.557E-01	-3.644E-01	 9.578E-01	 4.905E-01	 6.924E+00	-7.871E+00	 7.950E+01	 5.954E+01	 4.721E+01	-4.447E-01	 5.775E+01	 5.812E+01	 9.281E+01	 4.932E-02	-2.798E-03	 2.525E+01	 1.025E+00	 4.397E-02	-1.572E-02	-2.289E-03	 8.006E+00	-4.731E+00	 6.603E+01
  12.630	 8.158E+01	-2.426E-01	-3.689E-01	 1.002E+00	 7.903E-01	 7.319E+00	-8.026E+00	 7.978E+01	 6.254E+01	 4.807E+01	-4.777E-01	 5.608E+01	 5.673E+01	 9.481E+01	 4.950E-02	-2.563E-03	 2.506E+01	 1.897E+00	 4.603E-02	-1.584E-02	-2.541E-03	 8.320E+00	-4.786E+00	 6.615E+01
  12.645	 8.638E+01	-2.252E-01	-3.751E-01	 9.803E-01	 1.028E+00	 7.604E+00	-7.957E+00	 8.006E+01	 6.485E+01	 4.720E+01	-4.796E-01	 5.319E+01	 5.401E+01	 9.562E+01	 4.977E-02	-2.322E-03	 2.512E+01	 2.282E+00	 4.757E-02	-1.584E-02	-2.733E-03	 8.528E+00	-4.658E+00	 6.627E+01
  12.660	 9.118E+01	-2.058E-01	-3.820E-01	 8.995E-01	 1.167E+00	 7.702E+00	-7.705E+00	 8.036E+01	 6.616E+01	 4.506E+01	-4.547E-01	 5.004E+01	 5.091E+01	 9.522E+01	 5.014E-02	-2.079E-03	 2.543E+01	 2.110E+00	 4.842E-02	-1.587E-02	-2.838E-03	 8.591E+00	-4.400E+00	 6.642E+01
  12.675	 9.598E+01	-1.857E-01	-3.883E-01	 8.049E-01	 1.226E+00	 7.670E+00	-7.367E+00	 8.070E+01	 6.631E+01	 4.241E+01	-4.162E-01	 4.745E+01	 4.825E+01	 9.397E+01	 5.060E-02	-1.843E-03	 2.599E+01	 1.541E+00	 4.859E-02	-1.592E-02	-2.845E-03	 8.543E+00	-4.097E+00	 6.660E+01
  12.690	 1.008E+02	-1.664E-01	-3.930E-01	 7.243E-01	 1.235E+00	 7.551E+00	-7.039E+00	 8.107E+01	 6.523E+01	 3.997E+01	-3.772E-01	 4.585E+01	 4.652E+01	 9.239E+01	 5.114E-02	-1.628E-03	 2.680E+01	 8.872E-01	 4.804E-02	-1.594E-02	-2.758E-03	 8.360E+00	-3.834E+00	 6.682E+01
  12.705	 1.056E+02	-1.495E-01	-3.950E-01	 6.752E-01	 1.203E+00	 7.297E+00	-6.764E+00	 8.145E+01	 6.284E+01	 3.806E+01	-3.442E-01	 4.496E+01	 4.555E+01	 9.093E+01	 5.176E-02	-1.449E-03	 2.780E+01	 4.843E-01	 4.670E-02	-1.577E-02	-2.585E-03	 8.045E+00	-3.649E+00	 6.705E+01
  12.720	 1.104E+02	-1.366E-01	-3.941E-01	 6.364E-01	 1.127E+00	 6.874E+00	-6.546E+00	 8.184E+01	 5.921E+01	 3.664E+01	-3.150E-01	 4.428E+01	 4.488E+01	 8.979E+01	 5.244E-02	-1.317E-03	 2.891E+01	 5.303E-01	 4.456E-02	-1.528E-02	-2.341E-03	 7.607E+00	-3.551E+00	 6.730E+01
  12.735	 1.152E+02	-1.286E-01	-3.901E-01	 5.913E-01	 9.508E-01	 6.314E+00	-6.322E+00	 8.222E+01	 5.473E+01	 3.527E+01	-2.840E-01	 4.290E+01	 4.364E+01	 8.899E+01	 5.317E-02	-1.236E-03	 3.007E+01	 1.017E+00	 4.164E-02	-1.439E-02	-2.041E-03	 7.080E+00	-3.470E+00	 6.754E+01
  12.750	 1.200E+02	-1.255E-01	-3.829E-01	 5.377E-01	 6.743E-01	 5.705E+00	-6.065E+00	 8.260E+01	 4.983E+01	 3.373E+01	-2.496E-01	 4.047E+01	 4.143E+01	 8.851E+01	 5.393E-02	-1.198E-03	 3.126E+01	 1.708E+00	 3.814E-02	-1.311E-02	-1.708E-03	 6.529E+00	-3.372E+00	 6.778E+01
  12.765	 1.248E+02	-1.257E-01	-3.729E-01	 4.842E-01	 3.474E-01	 5.124E+00	-5.762E+00	 8.299E+01	 4.467E+01	 3.200E+01	-2.141E-01	 3.721E+01	 3.839E+01	 8.813E+01	 5.467E-02	-1.195E-03	 3.241E+01	 2.268E+00	 3.441E-02	-1.157E-02	-1.373E-03	 5.956E+00	-3.245E+00	 6.804E+01
  12.780	 1.296E+02	-1.291E-01	-3.599E-01	 4.361E-01	 4.783E-02	 4.571E+00	-5.424E+00	 8.336E+01	 3.947E+01	 3.008E+01	-1.784E-01	 3.390E+01	 3.517E+01	 8.762E+01	 5.540E-02	-1.216E-03	 3.347E+01	 2.402E+00	 3.065E-02	-9.972E-03	-1.058E-03	 5.390E+00	-3.093E+00	 6.829E+01
  12.795	 1.344E+02	-1.360E-01	-3.438E-01	 3.892E-01	-1.963E-01	 3.955E+00	-5.056E+00	 8.370E+01	 3.421E+01	 2.797E+01	-1.443E-01	 3.111E+01	 3.233E+01	 8.690E+01	 5.607E-02	-1.255E-03	 3.440E+01	 2.009E+00	 2.688E-02	-8.521E-03	-7.822E-04	 4.791E+00	-2.924E+00	 6.851E+01
  12.810	 1.392E+02	-1.459E-01	-3.247E-01	 3.330E-01	-3.829E-01	 3.292E+00	-4.669E+00	 8.400E+01	 2.914E+01	 2.573E+01	-1.136E-01	 2.918E+01	 3.024E+01	 8.592E+01	 5.666E-02	-1.310E-03	 3.522E+01	 1.208E+00	 2.321E-02	-7.334E-03	-5.568E-04	 4.183E+00	-2.746E+00	 6.872E+01
  12.825	 1.440E+02	-1.572E-01	-3.024E-01	 2.582E-01	-5.784E-01	 2.695E+00	-4.292E+00	 8.428E+01	 2.488E+01	 2.354E+01	-8.838E-02	 2.814E+01	 2.898E+01	 8.486E+01	 5.716E-02	-1.388E-03	 3.599E+01	 2.845E-01	 1.998E-02	-6.502E-03	-3.906E-04	 3.625E+00	-2.568E+00	 6.892E+01
  12.840	 1.488E+02	-1.676E-01	-2.773E-01	 2.045E-01	-7.536E-01	 2.409E+00	-3.966E+00	 8.458E+01	 2.272E+01	 2.186E+01	-7.241E-02	 2.852E+01	 2.916E+01	 8.393E+01	 5.753E-02	-1.495E-03	 3.674E+01	-4.725E-01	 1.785E-02	-6.214E-03	-2.911E-04	 3.373E+00	-2.396E+00	 6.915E+01
  12.855	 1.536E+02	-1.748E-01	-2.494E-01	 2.135E-01	-8.477E-01	 2.379E+00	-3.770E+00	 8.488E+01	 2.253E+01	 2.135E+01	-6.823E-02	 3.109E+01	 3.157E+01	 8.325E+01	 5.777E-02	-1.637E-03	 3.731E+01	-8.590E-01	 1.722E-02	-6.615E-03	-2.543E-04	 3.383E+00	-2.314E+00	 6.938E+01
  12.870	 1.584E+02	-1.768E-01	-2.192E-01	 2.764E-01	-8.361E-01	 2.483E+00	-3.700E+00	 8.511E+01	 2.365E+01	 2.191E+01	-7.371E-02	 3.562E+01	 3.602E+01	 8.277E+01	 5.789E-02	-1.816E-03	 3.751E+01	-7.694E-01	 1.777E-02	-7.592E-03	-2.709E-04	 3.569E+00	-2.335E+00	 6.957E+01
  12.885	 1.632E+02	-1.725E-01	-1.868E-01	 3.605E-01	-7.073E-01	 2.635E+00	-3.648E+00	 8.526E+01	 2.561E+01	 2.269E+01	-8.459E-02	 4.017E+01	 4.059E+01	 8.249E+01	 5.788E-02	-2.028E-03	 3.724E+01	-2.199E-01	 1.905E-02	-8.853E-03	-3.350E-04	 3.818E+00	-2.372E+00	 6.967E+01
  12.900	 1.680E+02	-1.608E-01	-1.525E-01	 4.197E-01	-5.074E-01	 2.815E+00	-3.471E+00	 8.532E+01	 2.796E+01	 2.261E+01	-9.512E-02	 4.268E+01	 4.322E+01	 8.216E+01	 5.776E-02	-2.263E-03	 3.657E+01	 5.748E-01	 2.092E-02	-1.013E-02	-4.449E-04	 3.996E+00	-2.297E+00	 6.970E+01
  12.915	 1.728E+02	-1.421E-01	-1.168E-01	 4.935E-01	-1.582E-01	 3.156E+00	-3.081E+00	 8.528E+01	 3.074E+01	 2.097E+01	-9.906E-02	 4.222E+01	 4.288E+01	 8.179E+01	 5.753E-02	-2.503E-03	 3.571E+01	 1.234E+00	 2.323E-02	-1.130E-02	-5.992E-04	 4.207E+00	-1.998E+00	 6.965E+01
  12.930	 1.776E+02	-1.189E-01	-8.024E-02	 4.485E-01	 3.720E-01	 3.323E+00	-2.537E+00	 8.520E+01	 3.244E+01	 1.771E+01	-8.665E-02	 3.927E+01	 3.996E+01	 8.112E+01	 5.719E-02	-2.729E-03	 3.476E+01	 1.364E+00	 2.564E-02	-1.229E-02	-7.841E-04	 4.135E+00	-1.590E+00	 6.954E+01
  12.945	 1.824E+02	-9.672E-02	-4.402E-02	 1.870E-01	 4.167E-01	 3.618E+00	-1.956E+00	 8.501E+01	 3.598E+01	 1.299E+01	-4.628E-02	 3.458E+01	 3.513E+01	 8.162E+01	 5.673E-02	-2.926E-03	 3.413E+01	 7.675E-01	 2.760E-02	-1.308E-02	-9.651E-04	 4.466E+00	-1.055E+00	 6.939E+01
  12.960	 1.872E+02	-6.840E-02	-9.198E-03	 2.799E-02	 3.571E-01	 4.376E+00	-1.403E+00	 8.494E+01	 4.093E+01	 8.959E+00	-9.201E-03	 2.962E+01	 2.988E+01	 8.178E+01	 5.619E-02	-3.083E-03	 3.364E+01	-5.096E-01	 2.986E-02	-1.373E-02	-1.138E-03	 5.155E+00	-5.048E-01	 6.936E+01
  12.975	 1.920E+02	-2.782E-02	 2.384E-02	-9.640E-03	 2.751E-01	 5.257E+00	-1.100E+00	 8.495E+01	 4.464E+01	 7.388E+00	 4.350E-03	 2.734E+01	 2.717E+01	 8.120E+01	 5.559E-02	-3.203E-03	 3.299E+01	-2.180E+00	 3.278E-02	-1.438E-02	-1.309E-03	 5.642E+00	-2.326E-01	 6.938E+01
  12.990	 1.968E+02	 1.827E-02	 5.546E-02	 2.778E-02	 1.948E-01	 5.823E+00	-9.889E-01	 8.490E+01	 4.710E+01	 7.532E+00	 6.269E-04	 2.853E+01	 2.791E+01	 8.097E+01	 5.496E-02	-3.296E-03	 3.210E+01	-3.667E+00	 3.521E-02	-1.513E-02	-1.453E-03	 6.051E+00	-1.729E-01	 6.936E+01
  13.005	 2.016E+02	 6.502E-02	 8.610E-02	 8.938E-02	 1.102E-01	 5.933E+00	-9.548E-01	 8.476E+01	 4.800E+01	 8.301E+00	-1.010E-02	 3.225E+01	 3.130E+01	 8.104E+01	 5.431E-02	-3.378E-03	 3.103E+01	-4.392E+00	 3.640E-02	-1.597E-02	-1.549E-03	 6.241E+00	-2.190E-01	 6.927E+01
  13.020	 2.064E+02	 1.125E-01	 1.158E-01	 1.425E-01	 1.036E-01	 5.822E+00	-9.071E-01	 8.457E+01	 4.752E+01	 8.861E+00	-1.973E-02	 3.650E+01	 3.545E+01	 8.113E+01	 5.366E-02	-3.454E-03	 2.998E+01	-4.055E+00	 3.651E-02	-1.675E-02	-1.594E-03	 6.158E+00	-2.734E-01	 6.913E+01
  13.035	 2.112E+02	 1.614E-01	 1.439E-01	 1.568E-01	 1.563E-01	 5.609E+00	-7.568E-01	 8.435E+01	 4.613E+01	 8.518E+00	-2.075E-02	 3.924E+01	 3.835E+01	 8.119E+01	 5.300E-02	-3.521E-03	 2.920E+01	-2.807E+00	 3.607E-02	-1.732E-02	-1.586E-03	 5.898E+00	-2.473E-01	 6.896E+01
  13.050	 2.160E+02	 2.097E-01	 1.694E-01	 1.178E-01	 2.223E-01	 5.380E+00	-4.671E-01	 8.411E+01	 4.464E+01	 6.956E+00	-9.096E-03	 3.944E+01	 3.884E+01	 8.141E+01	 5.233E-02	-3.560E-03	 2.885E+01	-1.197E+00	 3.535E-02	-1.752E-02	-1.523E-03	 5.638E+00	-9.243E-02	 6.878E+01
  13.065	 2.208E+02	 2.548E-01	 1.911E-01	 3.247E-02	 2.269E-01	 5.193E+00	-7.287E-02	 8.385E+01	 4.357E+01	 4.478E+00	 1.170E-02	 3.748E+01	 3.714E+01	 8.188E+01	 5.164E-02	-3.546E-03	 2.885E+01	 6.926E-02	 3.444E-02	-1.736E-02	-1.411E-03	 5.440E+00	 1.732E-01	 6.860E+01
  13.080	 2.256E+02	 2.958E-01	 2.081E-01	-5.776E-02	 1.750E-01	 5.068E+00	 3.263E-01	 8.359E+01	 4.295E+01	 1.956E+00	 3.234E-02	 3.469E+01	 3.443E+01	 8.235E+01	 5.095E-02	-3.461E-03	 2.897E+01	 4.590E-01	 3.351E-02	-1.696E-02	-1.274E-03	 5.325E+00	 4.535E-01	 6.844E+01
  13.095	 2.304E+02	 3.334E-01	 2.200E-01	-1.236E-01	 8.737E-02	 5.019E+00	 6.295E-01	 8.334E+01	 4.260E+01	 2.089E-01	 4.507E-02	 3.271E+01	 3.226E+01	 8.270E+01	 5.027E-02	-3.299E-03	 2.890E+01	-1.477E-01	 3.274E-02	-1.653E-02	-1.141E-03	 5.275E+00	 6.517E-01	 6.829E+01
  13.110	 2.352E+02	 3.683E-01	 2.269E-01	-1.457E-01	-1.360E-02	 5.019E+00	 8.081E-01	 8.310E+01	 4.241E+01	-4.809E-01	 4.770E-02	 3.245E+01	 3.165E+01	 8.302E+01	 4.961E-02	-3.069E-03	 2.846E+01	-1.391E+00	 3.228E-02	-1.630E-02	-1.039E-03	 5.274E+00	 7.384E-01	 6.815E+01
  13.125	 2.400E+02	 4.010E-01	 2.295E-01	-1.448E-01	-1.219E-01	 5.015E+00	 8.787E-01	 8.284E+01	 4.235E+01	-2.975E-01	 4.333E-02	 3.417E+01	 3.297E+01	 8.349E+01	 4.899E-02	-2.796E-03	 2.764E+01	-2.616E+00	 3.223E-02	-1.645E-02	-9.863E-04	 5.312E+00	 7.251E-01	 6.800E+01
  13.140	 2.448E+02	 4.318E-01	 2.283E-01	-1.195E-01	-2.222E-01	 5.087E+00	 8.988E-01	 8.258E+01	 4.268E+01	 2.774E-01	 3.623E-02	 3.739E+01	 3.595E+01	 8.433E+01	 4.841E-02	-2.506E-03	 2.660E+01	-3.171E+00	 3.271E-02	-1.707E-02	-1.001E-03	 5.400E+00	 6.821E-01	 6.785E+01
  13.155	 2.496E+02	 4.601E-01	 2.238E-01	-9.892E-02	-3.234E-01	 5.211E+00	 9.175E-01	 8.229E+01	 4.348E+01	 8.548E-01	 3.022E-02	 4.140E+01	 3.995E+01	 8.557E+01	 4.786E-02	-2.221E-03	 2.555E+01	-2.699E+00	 3.385E-02	-1.815E-02	-1.094E-03	 5.504E+00	 6.505E-01	 6.768E+01
  13.170	 2.544E+02	 4.850E-01	 2.160E-01	-6.803E-02	-3.647E-01	 5.485E+00	 9.225E-01	 8.198E+01	 4.521E+01	 1.395E+00	 2.604E-02	 4.580E+01	 4.458E+01	 8.709E+01	 4.736E-02	-1.950E-03	 2.470E+01	-1.278E+00	 3.579E-02	-1.966E-02	-1.281E-03	 5.732E+00	 6.418E-01	 6.749E+01
  13.185	 2.592E+02	 5.050E-01	 2.050E-01	-2.596E-02	-2.617E-01	 5.948E+00	 8.887E-01	 8.163E+01	 4.796E+01	 2.079E+00	 2.219E-02	 5.045E+01	 4.960E+01	 8.865E+01	 4.691E-02	-1.690E-03	 2.412E+01	 6.463E-01	 3.864E-02	-2.153E-02	-1.582E-03	 6.089E+00	 6.312E-01	 6.729E+01
  13.200	 2.640E+02	 5.187E-01	 1.908E-01	 4.011E-02	-2.627E-03	 6.530E+00	 8.289E-01	 8.122E+01	 5.135E+01	 2.759E+00	 1.942E-02	 5.482E+01	 5.435E+01	 9.021E+01	 4.653E-02	-1.434E-03	 2.374E+01	 2.506E+00	 4.213E-02	-2.358E-02	-1.986E-03	 6.546E+00	 6.284E-01	 6.703E+01
  13.215	 2.688E+02	 5.236E-01	 1.738E-01	 9.236E-02	 3.135E-01	 6.783E+00	 8.993E-01	 8.070E+01	 5.341E+01	 2.417E+00	 2.543E-02	 5.666E+01	 5.654E+01	 9.172E+01	 4.624E-02	-1.176E-03	 2.336E+01	 3.874E+00	 4.510E-02	-2.525E-02	-2.416E-03	 6.720E+00	 7.119E-01	 6.668E+01
  13.230	 2.736E+02	 5.186E-01	 1.548E-01	 3.766E-02	 5.976E-01	 6.759E+00	 1.137E+00	 8.011E+01	 5.410E+01	 4.335E-01	 5.114E-02	 5.406E+01	 5.421E+01	 9.279E+01	 4.604E-02	-9.126E-04	 2.301E+01	 4.506E+00	 4.679E-02	-2.601E-02	-2.769E-03	 6.636E+00	 9.291E-01	 6.626E+01
  13.245	 2.784E+02	 5.049E-01	 1.349E-01	-8.666E-02	 7.829E-01	 6.730E+00	 1.525E+00	 7.956E+01	 5.445E+01	-2.943E+00	 9.403E-02	 4.706E+01	 4.737E+01	 9.326E+01	 4.595E-02	-6.478E-04	 2.284E+01	 4.307E+00	 4.756E-02	-2.580E-02	-2.979E-03	 6.532E+00	 1.301E+00	 6.588E+01
  13.260	 2.832E+02	 4.843E-01	 1.155E-01	-2.373E-01	 8.344E-01	 6.714E+00	 1.925E+00	 7.911E+01	 5.452E+01	-6.500E+00	 1.383E-01	 3.825E+01	 3.857E+01	 9.310E+01	 4.595E-02	-3.894E-04	 2.289E+01	 3.344E+00	 4.769E-02	-2.486E-02	-3.019E-03	 6.450E+00	 1.692E+00	 6.560E+01
  13.275	 2.880E+02	 4.589E-01	 9.799E-02	-3.430E-01	 7.765E-01	 6.664E+00	 2.171E+00	 7.876E+01	 5.404E+01	-8.863E+00	 1.640E-01	 3.093E+01	 3.110E+01	 9.236E+01	 4.604E-02	-1.521E-04	 2.315E+01	 1.916E+00	 4.710E-02	-2.356E-02	-2.895E-03	 6.386E+00	 1.947E+00	 6.540E+01
  13.290	 2.928E+02	 4.309E-01	 8.370E-02	-3.711E-01	 6.476E-01	 6.446E+00	 2.155E+00	 7.849E+01	 5.230E+01	-9.151E+00	 1.600E-01	 2.732E+01	 2.728E+01	 9.113E+01	 4.622E-02	 4.370E-05	 2.355E+01	 5.314E-01	 4.559E-02	-2.218E-02	-2.636E-03	 6.200E+00	 1.944E+00	 6.526E+01
  13.305	 2.976E+02	 4.021E-01	 7.374E-02	-3.258E-01	 4.720E-01	 5.962E+00	 1.900E+00	 7.826E+01	 4.901E+01	-7.471E+00	 1.299E-01	 2.761E+01	 2.739E+01	 8.961E+01	 4.650E-02	 1.767E-04	 2.407E+01	-2.560E-01	 4.309E-02	-2.085E-02	-2.276E-03	 5.823E+00	 1.690E+00	 6.515E+01
  13.320	 3.024E+02	 3.743E-01	 6.881E-02	-2.503E-01	 2.327E-01	 5.312E+00	 1.467E+00	 7.804E+01	 4.482E+01	-4.439E+00	 8.759E-02	 3.070E+01	 3.047E+01	 8.795E+01	 4.684E-02	 2.319E-04	 2.476E+01	-1.069E-01	 3.988E-02	-1.962E-02	-1.879E-03	 5.331E+00	 1.257E+00	 6.503E+01
  13.335	 3.072E+02	 3.487E-01	 6.902E-02	-1.594E-01	-3.087E-02	 4.797E+00	 9.612E-01	 7.787E+01	 4.147E+01	-6.461E-01	 4.351E-02	 3.578E+01	 3.571E+01	 8.655E+01	 4.723E-02	 2.066E-04	 2.574E+01	 9.106E-01	 3.704E-02	-1.880E-02	-1.539E-03	 4.963E+00	 7.739E-01	 6.496E+01
  13.350	 3.120E+02	 3.256E-01	 7.410E-02	-7.457E-03	-1.956E-01	 4.577E+00	 3.013E-01	 7.771E+01	 3.987E+01	 4.063E+00	-1.145E-04	 4.348E+01	 4.363E+01	 8.544E+01	 4.765E-02	 1.093E-04	 2.686E+01	 2.361E+00	 3.521E-02	-1.866E-02	-1.308E-03	 4.892E+00	 2.157E-01	 6.489E+01
  13.365	 3.168E+02	 3.058E-01	 8.362E-02	 1.584E-01	-2.371E-01	 4.445E+00	-3.926E-01	 7.750E+01	 3.900E+01	 8.961E+00	-4.086E-02	 5.174E+01	 5.208E+01	 8.466E+01	 4.810E-02	-4.576E-05	 2.783E+01	 3.798E+00	 3.424E-02	-1.897E-02	-1.183E-03	 4.884E+00	-3.600E-01	 6.478E+01
  13.380	 3.216E+02	 2.893E-01	 9.707E-02	 2.915E-01	-1.753E-01	 4.370E+00	-9.723E-01	 7.724E+01	 3.869E+01	 1.277E+01	-7.064E-02	 5.712E+01	 5.762E+01	 8.395E+01	 4.859E-02	-2.431E-04	 2.846E+01	 4.848E+00	 3.375E-02	-1.924E-02	-1.136E-03	 4.920E+00	-8.122E-01	 6.459E+01
  13.395	 3.264E+02	 2.759E-01	 1.138E-01	 3.527E-01	-4.798E-02	 4.285E+00	-1.293E+00	 7.694E+01	 3.848E+01	 1.451E+01	-8.335E-02	 5.730E+01	 5.790E+01	 8.344E+01	 4.910E-02	-4.674E-04	 2.871E+01	 5.208E+00	 3.349E-02	-1.905E-02	-1.149E-03	 4.906E+00	-1.030E+00	 6.438E+01
  13.410	 3.312E+02	 2.651E-01	 1.332E-01	 3.226E-01	 1.002E-01	 4.201E+00	-1.318E+00	 7.667E+01	 3.815E+01	 1.388E+01	-7.587E-02	 5.187E+01	 5.248E+01	 8.314E+01	 4.962E-02	-7.053E-04	 2.874E+01	 4.689E+00	 3.335E-02	-1.826E-02	-1.199E-03	 4.783E+00	-9.822E-01	 6.417E+01
  13.425	 3.360E+02	 2.543E-01	 1.546E-01	 2.258E-01	 2.502E-01	 4.147E+00	-1.128E+00	 7.645E+01	 3.785E+01	 1.144E+01	-5.190E-02	 4.266E+01	 4.315E+01	 8.295E+01	 5.014E-02	-9.482E-04	 2.877E+01	 3.289E+00	 3.319E-02	-1.698E-02	-1.261E-03	 4.638E+00	-7.289E-01	 6.400E+01
  13.440	 3.408E+02	 2.412E-01	 1.776E-01	 8.908E-02	 3.609E-01	 4.088E+00	-8.816E-01	 7.631E+01	 3.753E+01	 8.395E+00	-2.158E-02	 3.254E+01	 3.277E+01	 8.267E+01	 5.065E-02	-1.195E-03	 2.898E+01	 1.254E+00	 3.291E-02	-1.550E-02	-1.299E-03	 4.494E+00	-4.150E-01	 6.390E+01
  13.455	 3.456E+02	 2.240E-01	 2.022E-01	-2.196E-02	 4.181E-01	 4.043E+00	-7.329E-01	 7.626E+01	 3.716E+01	 6.074E+00	 1.971E-03	 2.444E+01	 2.432E+01	 8.228E+01	 5.113E-02	-1.450E-03	 2.945E+01	-9.526E-01	 3.250E-02	-1.412E-02	-1.292E-03	 4.412E+00	-1.821E-01	 6.388E+01
  13.470	 3.504E+02	 2.022E-01	 2.285E-01	-7.497E-02	 3.933E-01	 3.971E+00	-7.905E-01	 7.629E+01	 3.649E+01	 5.434E+00	 9.678E-03	 2.010E+01	 1.965E+01	 8.175E+01	 5.157E-02	-1.724E-03	 3.012E+01	-2.767E+00	 3.194E-02	-1.305E-02	-1.225E-03	 4.346E+00	-1.430E-01	 6.393E+01
  13.485	 3.552E+02	 1.756E-01	 2.564E-01	-4.880E-02	 2.911E-01	 3.698E+00	-1.087E+00	 7.634E+01	 3.509E+01	 6.777E+00	-5.162E-04	 1.989E+01	 1.922E+01	 8.093E+01	 5.198E-02	-2.025E-03	 3.084E+01	-3.726E+00	 3.062E-02	-1.224E-02	-1.108E-03	 4.240E+00	-3.402E-01	 6.399E+01
  13.500	 3.600E+02	 1.490E-01	 2.856E-01	 5.529E-02	 1.662E-01	 3.043E+00	-1.607E+00	 7.637E+01	 3.181E+01	 1.009E+01	-2.742E-02	 2.263E+01	 2.191E+01	 8.021E+01	 5.235E-02	-2.352E-03	 3.146E+01	-3.625E+00	 2.830E-02	-1.136E-02	-9.477E-04	 3.887E+00	-7.967E-01	 6.403E+01
  13.515	 4.783E+00	 1.268E-01	 3.149E-01	 1.977E-01	 1.283E-01	 3.273E+00	-2.177E+00	 7.651E+01	 2.957E+01	 1.385E+01	-5.387E-02	 2.601E+01	 2.542E+01	 8.088E+01	 5.266E-02	-2.695E-03	 3.228E+01	-2.631E+00	 2.677E-02	-1.050E-02	-7.803E-04	 3.745E+00	-1.257E+00	 6.413E+01
  13.530	 9.583E+00	 9.656E-02	 3.431E-01	 2.336E-01	-1.070E-01	 3.128E+00	-2.606E+00	 7.654E+01	 2.789E+01	 1.600E+01	-6.137E-02	 2.847E+01	 2.813E+01	 8.031E+01	 5.291E-02	-3.029E-03	 3.278E+01	-1.280E+00	 2.509E-02	-9.783E-03	-6.129E-04	 3.694E+00	-1.548E+00	 6.415E+01
  13.545	 1.438E+01	 5.869E-02	 3.695E-01	 2.212E-01	-3.624E-01	 2.854E+00	-2.900E+00	 7.657E+01	 2.636E+01	 1.698E+01	-6.030E-02	 2.976E+01	 2.963E+01	 7.973E+01	 5.311E-02	-3.327E-03	 3.290E+01	-2.311E-01	 2.305E-02	-9.133E-03	-4.651E-04	 3.642E+00	-1.707E+00	 6.416E+01
  13.560	 1.918E+01	 2.064E-02	 3.938E-01	 2.216E-01	-4.706E-01	 2.650E+00	-3.129E+00	 7.667E+01	 2.435E+01	 1.765E+01	-5.839E-02	 2.974E+01	 2.966E+01	 7.975E+01	 5.324E-02	-3.565E-03	 3.273E+01	 5.092E-02	 2.123E-02	-8.457E-03	-3.598E-04	 3.468E+00	-1.835E+00	 6.423E+01
  13.575	 2.398E+01	-1.583E-02	 4.157E-01	 2.290E-01	-4.714E-01	 2.412E+00	-3.315E+00	 7.684E+01	 2.190E+01	 1.817E+01	-5.581E-02	 2.856E+01	 2.830E+01	 7.991E+01	 5.331E-02	-3.731E-03	 3.242E+01	-5.574E-01	 1.972E-02	-7.699E-03	-2.968E-04	 3.161E+00	-1.955E+00	 6.433E+01
  13.590	 2.878E+01	-5.308E-02	 4.349E-01	 2.172E-01	-4.589E-01	 2.141E+00	-3.470E+00	 7.702E+01	 2.001E+01	 1.851E+01	-5.262E-02	 2.660E+01	 2.603E+01	 7.987E+01	 5.328E-02	-3.825E-03	 3.221E+01	-1.830E+00	 1.840E-02	-6.901E-03	-2.645E-04	 2.905E+00	-2.048E+00	 6.446E+01
  13.605	 3.358E+01	-9.079E-02	 4.514E-01	 2.007E-01	-4.762E-01	 2.043E+00	-3.651E+00	 7.723E+01	 1.945E+01	 1.905E+01	-5.162E-02	 2.460E+01	 2.366E+01	 8.003E+01	 5.316E-02	-3.856E-03	 3.223E+01	-3.302E+00	 1.761E-02	-6.205E-03	-2.623E-04	 2.874E+00	-2.143E+00	 6.461E+01
  13.620	 3.838E+01	-1.269E-01	 4.647E-01	 2.031E-01	-5.515E-01	 2.212E+00	-3.897E+00	 7.749E+01	 2.040E+01	 2.017E+01	-5.522E-02	 2.338E+01	 2.212E+01	 8.058E+01	 5.293E-02	-3.839E-03	 3.241E+01	-4.453E+00	 1.785E-02	-5.812E-03	-2.902E-04	 3.060E+00	-2.268E+00	 6.480E+01
  13.635	 4.318E+01	-1.605E-01	 4.748E-01	 2.311E-01	-6.523E-01	 2.650E+00	-4.249E+00	 7.779E+01	 2.287E+01	 2.214E+01	-6.535E-02	 2.403E+01	 2.258E+01	 8.148E+01	 5.262E-02	-3.786E-03	 3.251E+01	-4.915E+00	 1.926E-02	-5.900E-03	-3.517E-04	 3.476E+00	-2.461E+00	 6.502E+01
  13.650	 4.798E+01	-1.920E-01	 4.811E-01	 3.003E-01	-7.216E-01	 3.226E+00	-4.700E+00	 7.810E+01	 2.655E+01	 2.495E+01	-8.419E-02	 2.703E+01	 2.554E+01	 8.255E+01	 5.225E-02	-3.705E-03	 3.222E+01	-4.555E+00	 2.161E-02	-6.559E-03	-4.493E-04	 4.042E+00	-2.720E+00	 6.525E+01
  13.665	 5.278E+01	-2.212E-01	 4.835E-01	 3.958E-01	-7.065E-01	 3.838E+00	-5.249E+00	 7.841E+01	 3.094E+01	 2.853E+01	-1.140E-01	 3.231E+01	 3.091E+01	 8.382E+01	 5.184E-02	-3.596E-03	 3.140E+01	-3.494E+00	 2.456E-02	-7.736E-03	-5.872E-04	 4.662E+00	-3.062E+00	 6.547E+01
  13.680	 5.758E+01	-2.472E-01	 4.816E-01	 5.160E-01	-5.717E-01	 4.415E+00	-5.829E+00	 7.869E+01	 3.573E+01	 3.243E+01	-1.557E-01	 3.870E+01	 3.748E+01	 8.528E+01	 5.142E-02	-3.457E-03	 3.008E+01	-2.017E+00	 2.781E-02	-9.243E-03	-7.688E-04	 5.283E+00	-3.435E+00	 6.565E+01
  13.695	 6.238E+01	-2.686E-01	 4.752E-01	 6.315E-01	-3.364E-01	 4.937E+00	-6.382E+00	 7.894E+01	 4.074E+01	 3.617E+01	-2.070E-01	 4.471E+01	 4.371E+01	 8.694E+01	 5.100E-02	-3.280E-03	 2.851E+01	-4.940E-01	 3.119E-02	-1.083E-02	-9.946E-04	 5.866E+00	-3.794E+00	 6.580E+01
  13.710	 6.718E+01	-2.836E-01	 4.644E-01	 7.315E-01	-4.829E-02	 5.477E+00	-6.847E+00	 7.916E+01	 4.605E+01	 3.929E+01	-2.628E-01	 4.902E+01	 4.822E+01	 8.881E+01	 5.059E-02	-3.062E-03	 2.702E+01	 7.281E-01	 3.465E-02	-1.228E-02	-1.265E-03	 6.454E+00	-4.074E+00	 6.592E+01
  13.725	 7.198E+01	-2.904E-01	 4.491E-01	 7.962E-01	 2.363E-01	 6.038E+00	-7.199E+00	 7.938E+01	 5.156E+01	 4.160E+01	-3.170E-01	 5.114E+01	 5.046E+01	 9.080E+01	 5.021E-02	-2.802E-03	 2.588E+01	 1.414E+00	 3.819E-02	-1.348E-02	-1.581E-03	 7.056E+00	-4.259E+00	 6.602E+01
  13.740	 7.678E+01	-2.884E-01	 4.299E-01	 8.369E-01	 5.073E-01	 6.654E+00	-7.445E+00	 7.962E+01	 5.725E+01	 4.316E+01	-3.659E-01	 5.153E+01	 5.088E+01	 9.271E+01	 4.988E-02	-2.506E-03	 2.521E+01	 1.510E+00	 4.178E-02	-1.445E-02	-1.943E-03	 7.687E+00	-4.350E+00	 6.613E+01
  13.755	 8.158E+01	-2.778E-01	 4.077E-01	 8.644E-01	 7.392E-01	 7.271E+00	-7.612E+00	 7.988E+01	 6.275E+01	 4.426E+01	-4.093E-01	 5.124E+01	 5.054E+01	 9.434E+01	 4.961E-02	-2.187E-03	 2.493E+01	 1.160E+00	 4.529E-02	-1.532E-02	-2.344E-03	 8.311E+00	-4.382E+00	 6.626E+01
  13.770	 8.638E+01	-2.592E-01	 3.836E-01	 8.979E-01	 9.523E-01	 7.829E+00	-7.745E+00	 8.017E+01	 6.751E+01	 4.518E+01	-4.483E-01	 5.127E+01	 5.050E+01	 9.555E+01	 4.944E-02	-1.864E-03	 2.485E+01	 6.693E-01	 4.846E-02	-1.615E-02	-2.755E-03	 8.858E+00	-4.403E+00	 6.640E+01
  13.785	 9.118E+01	-2.343E-01	 3.593E-01	 9.335E-01	 1.170E+00	 8.243E+00	-7.828E+00	 8.046E+01	 7.080E+01	 4.575E+01	-4.772E-01	 5.160E+01	 5.081E+01	 9.625E+01	 4.939E-02	-1.559E-03	 2.480E+01	 4.088E-01	 5.086E-02	-1.688E-02	-3.120E-03	 9.239E+00	-4.411E+00	 6.654E+01
  13.800	 9.598E+01	-2.052E-01	 3.362E-01	 9.273E-01	 1.328E+00	 8.343E+00	-7.796E+00	 8.074E+01	 7.188E+01	 4.547E+01	-4.833E-01	 5.127E+01	 5.059E+01	 9.628E+01	 4.946E-02	-1.288E-03	 2.470E+01	 6.388E-01	 5.207E-02	-1.731E-02	-3.368E-03	 9.320E+00	-4.372E+00	 6.666E+01
  13.815	 1.008E+02	-1.737E-01	 3.156E-01	 8.677E-01	 1.396E+00	 8.226E+00	-7.608E+00	 8.104E+01	 7.116E+01	 4.402E+01	-4.593E-01	 4.950E+01	 4.907E+01	 9.570E+01	 4.965E-02	-1.062E-03	 2.469E+01	 1.357E+00	 5.198E-02	-1.731E-02	-3.450E-03	 9.176E+00	-4.232E+00	 6.679E+01
  13.830	 1.056E+02	-1.416E-01	 2.983E-01	 7.632E-01	 1.324E+00	 7.945E+00	-7.276E+00	 8.136E+01	 6.902E+01	 4.155E+01	-4.106E-01	 4.630E+01	 4.620E+01	 9.461E+01	 4.996E-02	-8.781E-04	 2.495E+01	 2.289E+00	 5.070E-02	-1.682E-02	-3.342E-03	 8.872E+00	-3.995E+00	 6.696E+01
  13.845	 1.104E+02	-1.099E-01	 2.849E-01	 6.381E-01	 1.128E+00	 7.559E+00	-6.881E+00	 8.172E+01	 6.575E+01	 3.867E+01	-3.522E-01	 4.245E+01	 4.264E+01	 9.331E+01	 5.037E-02	-7.288E-04	 2.560E+01	 3.034E+00	 4.835E-02	-1.589E-02	-3.055E-03	 8.475E+00	-3.725E+00	 6.717E+01
  13.860	 1.152E+02	-7.831E-02	 2.756E-01	 5.379E-01	 8.609E-01	 7.078E+00	-6.505E+00	 8.212E+01	 6.131E+01	 3.610E+01	-3.001E-01	 3.901E+01	 3.936E+01	 9.195E+01	 5.085E-02	-6.063E-04	 2.664E+01	 3.272E+00	 4.517E-02	-1.465E-02	-2.643E-03	 7.989E+00	-3.502E+00	 6.743E+01
  13.875	 1.200E+02	-4.724E-02	 2.708E-01	 4.748E-01	 5.744E-01	 6.561E+00	-6.178E+00	 8.255E+01	 5.591E+01	 3.410E+01	-2.587E-01	 3.664E+01	 3.697E+01	 9.052E+01	 5.140E-02	-5.088E-04	 2.797E+01	 2.938E+00	 4.151E-02	-1.329E-02	-2.172E-03	 7.406E+00	-3.350E+00	 6.771E+01
  13.890	 1.248E+02	-1.891E-02	 2.710E-01	 4.366E-01	 2.775E-01	 5.980E+00	-5.873E+00	 8.295E+01	 4.987E+01	 3.242E+01	-2.225E-01	 3.545E+01	 3.563E+01	 8.889E+01	 5.198E-02	-4.412E-04	 2.941E+01	 2.214E+00	 3.753E-02	-1.196E-02	-1.696E-03	 6.750E+00	-3.239E+00	 6.798E+01
  13.905	 1.296E+02	 4.483E-03	 2.765E-01	 4.075E-01	 1.302E-03	 5.291E+00	-5.558E+00	 8.330E+01	 4.353E+01	 3.067E+01	-1.866E-01	 3.493E+01	 3.493E+01	 8.720E+01	 5.258E-02	-4.122E-04	 3.080E+01	 1.428E+00	 3.330E-02	-1.076E-02	-1.260E-03	 6.062E+00	-3.126E+00	 6.822E+01
  13.920	 1.344E+02	 2.254E-02	 2.873E-01	 3.680E-01	-2.397E-01	 4.544E+00	-5.199E+00	 8.362E+01	 3.709E+01	 2.863E+01	-1.505E-01	 3.450E+01	 3.436E+01	 8.547E+01	 5.317E-02	-4.305E-04	 3.202E+01	 8.901E-01	 2.899E-02	-9.663E-03	-8.952E-04	 5.316E+00	-2.984E+00	 6.844E+01
  13.935	 1.392E+02	 3.547E-02	 3.032E-01	 3.146E-01	-4.152E-01	 3.770E+00	-4.803E+00	 8.391E+01	 3.098E+01	 2.625E+01	-1.156E-01	 3.358E+01	 3.341E+01	 8.397E+01	 5.373E-02	-4.992E-04	 3.303E+01	 7.558E-01	 2.474E-02	-8.633E-03	-6.146E-04	 4.587E+00	-2.807E+00	 6.864E+01
  13.950	 1.440E+02	 4.430E-02	 3.233E-01	 2.446E-01	-5.561E-01	 3.025E+00	-4.377E+00	 8.419E+01	 2.549E+01	 2.364E+01	-8.522E-02	 3.184E+01	 3.174E+01	 8.283E+01	 5.423E-02	-6.143E-04	 3.386E+01	 9.674E-01	 2.074E-02	-7.603E-03	-4.129E-04	 3.893E+00	-2.598E+00	 6.883E+01
  13.965	 1.488E+02	 5.081E-02	 3.468E-01	 1.788E-01	-6.772E-01	 2.360E+00	-3.933E+00	 8.446E+01	 2.099E+01	 2.104E+01	-6.177E-02	 2.922E+01	 2.924E+01	 8.204E+01	 5.464E-02	-7.651E-04	 3.453E+01	 1.301E+00	 1.729E-02	-6.567E-03	-2.764E-04	 3.298E+00	-2.370E+00	 6.903E+01
  13.980	 1.536E+02	 5.639E-02	 3.730E-01	 1.270E-01	-7.926E-01	 1.881E+00	-3.512E+00	 8.471E+01	 1.781E+01	 1.873E+01	-4.558E-02	 2.632E+01	 2.644E+01	 8.156E+01	 5.494E-02	-9.378E-04	 3.507E+01	 1.465E+00	 1.459E-02	-5.602E-03	-1.897E-04	 2.884E+00	-2.146E+00	 6.921E+01
  13.995	 1.584E+02	 6.221E-02	 4.014E-01	 1.082E-01	-8.820E-01	 1.581E+00	-3.118E+00	 8.493E+01	 1.586E+01	 1.687E+01	-3.575E-02	 2.393E+01	 2.404E+01	 8.113E+01	 5.512E-02	-1.120E-03	 3.545E+01	 1.251E+00	 1.273E-02	-4.855E-03	-1.381E-04	 2.615E+00	-1.939E+00	 6.938E+01
  14.010	 1.632E+02	 6.897E-02	 4.319E-01	 1.115E-01	-8.984E-01	 1.417E+00	-2.784E+00	 8.511E+01	 1.495E+01	 1.551E+01	-3.046E-02	 2.285E+01	 2.281E+01	 8.071E+01	 5.516E-02	-1.304E-03	 3.559E+01	 6.309E-01	 1.164E-02	-4.477E-03	-1.120E-04	 2.485E+00	-1.769E+00	 6.951E+01
  14.025	 1.680E+02	 7.724E-02	 4.644E-01	 1.366E-01	-8.211E-01	 1.309E+00	-2.458E+00	 8.524E+01	 1.473E+01	 1.434E+01	-2.794E-02	 2.306E+01	 2.279E+01	 8.013E+01	 5.506E-02	-1.489E-03	 3.545E+01	-2.103E-01	 1.130E-02	-4.569E-03	-1.023E-04	 2.407E+00	-1.605E+00	 6.961E+01
  14.040	 1.728E+02	 8.632E-02	 4.987E-01	 1.486E-01	-7.451E-01	 1.261E+00	-2.110E+00	 8.530E+01	 1.513E+01	 1.291E+01	-2.629E-02	 2.405E+01	 2.354E+01	 7.966E+01	 5.483E-02	-1.678E-03	 3.507E+01	-9.853E-01	 1.158E-02	-5.121E-03	-1.075E-04	 2.312E+00	-1.395E+00	 6.965E+01
  14.055	 1.776E+02	 9.565E-02	 5.340E-01	 2.038E-01	-4.227E-01	 1.476E+00	-1.761E+00	 8.529E+01	 1.635E+01	 1.123E+01	-2.455E-02	 2.532E+01	 2.461E+01	 7.947E+01	 5.446E-02	-1.873E-03	 3.454E+01	-1.463E+00	 1.233E-02	-6.003E-03	-1.242E-04	 2.371E+00	-1.124E+00	 6.964E+01
  14.070	 1.824E+02	 1.054E-01	 5.694E-01	 1.257E-01	-1.596E-01	 1.610E+00	-1.462E+00	 8.526E+01	 1.734E+01	 9.292E+00	-1.880E-02	 2.631E+01	 2.549E+01	 7.927E+01	 5.396E-02	-2.071E-03	 3.379E+01	-1.547E+00	 1.354E-02	-7.037E-03	-1.531E-04	 2.378E+00	-9.200E-01	 6.960E+01
  14.085	 1.872E+02	 1.140E-01	 6.038E-01	-1.159E-02	-2.866E-01	 2.003E+00	-1.094E+00	 8.519E+01	 2.079E+01	 6.608E+00	-7.334E-03	 2.587E+01	 2.504E+01	 8.016E+01	 5.335E-02	-2.265E-03	 3.305E+01	-1.301E+00	 1.500E-02	-8.061E-03	-1.929E-04	 2.823E+00	-5.692E-01	 6.957E+01
  14.100	 1.920E+02	 1.275E-01	 6.361E-01	-4.961E-02	-3.884E-01	 2.550E+00	-7.715E-01	 8.519E+01	 2.440E+01	 5.072E+00	-1.051E-03	 2.542E+01	 2.459E+01	 8.034E+01	 5.264E-02	-2.440E-03	 3.207E+01	-1.031E+00	 1.729E-02	-9.052E-03	-2.549E-04	 3.240E+00	-2.985E-01	 6.959E+01
  14.115	 1.968E+02	 1.452E-01	 6.655E-01	-1.998E-02	-4.359E-01	 3.134E+00	-6.281E-01	 8.515E+01	 2.808E+01	 5.096E+00	-1.528E-03	 2.660E+01	 2.569E+01	 8.056E+01	 5.186E-02	-2.583E-03	 3.089E+01	-9.947E-01	 2.014E-02	-1.009E-02	-3.449E-04	 3.780E+00	-2.020E-01	 6.957E+01
  14.130	 2.016E+02	 1.635E-01	 6.922E-01	 5.133E-02	-4.290E-01	 3.623E+00	-5.764E-01	 8.503E+01	 3.145E+01	 5.911E+00	-7.123E-03	 2.945E+01	 2.837E+01	 8.082E+01	 5.103E-02	-2.687E-03	 2.958E+01	-1.214E+00	 2.301E-02	-1.130E-02	-4.651E-04	 4.209E+00	-1.982E-01	 6.950E+01
  14.145	 2.064E+02	 1.809E-01	 7.163E-01	 1.180E-01	-3.467E-01	 3.949E+00	-5.311E-01	 8.485E+01	 3.436E+01	 6.715E+00	-1.397E-02	 3.347E+01	 3.217E+01	 8.122E+01	 5.016E-02	-2.755E-03	 2.824E+01	-1.542E+00	 2.578E-02	-1.281E-02	-6.252E-04	 4.504E+00	-2.067E-01	 6.937E+01
  14.160	 2.112E+02	 1.965E-01	 7.377E-01	 1.594E-01	-1.701E-01	 4.237E+00	-4.292E-01	 8.463E+01	 3.728E+01	 6.917E+00	-1.723E-02	 3.767E+01	 3.616E+01	 8.189E+01	 4.928E-02	-2.789E-03	 2.707E+01	-1.759E+00	 2.865E-02	-1.461E-02	-8.381E-04	 4.754E+00	-1.569E-01	 6.921E+01
  14.175	 2.160E+02	 2.097E-01	 7.559E-01	 1.606E-01	 4.931E-02	 4.594E+00	-2.485E-01	 8.438E+01	 4.057E+01	 6.291E+00	-1.302E-02	 4.109E+01	 3.944E+01	 8.293E+01	 4.840E-02	-2.796E-03	 2.615E+01	-1.704E+00	 3.180E-02	-1.662E-02	-1.110E-03	 5.000E+00	-1.224E-02	 6.903E+01
  14.190	 2.208E+02	 2.194E-01	 7.702E-01	 1.376E-01	 3.002E-01	 5.047E+00	-4.638E-03	 8.411E+01	 4.440E+01	 5.044E+00	-4.486E-04	 4.333E+01	 4.164E+01	 8.427E+01	 4.753E-02	-2.775E-03	 2.543E+01	-1.367E+00	 3.535E-02	-1.867E-02	-1.440E-03	 5.355E+00	 2.055E-01	 6.884E+01
  14.205	 2.256E+02	 2.244E-01	 7.800E-01	 9.739E-02	 5.346E-01	 5.610E+00	 2.464E-01	 8.380E+01	 4.870E+01	 3.599E+00	 1.849E-02	 4.452E+01	 4.286E+01	 8.575E+01	 4.671E-02	-2.725E-03	 2.478E+01	-8.735E-01	 3.917E-02	-2.061E-02	-1.820E-03	 5.811E+00	 4.487E-01	 6.863E+01
  14.220	 2.304E+02	 2.235E-01	 7.848E-01	 5.880E-02	 7.057E-01	 6.178E+00	 5.022E-01	 8.348E+01	 5.305E+01	 2.210E+00	 3.998E-02	 4.505E+01	 4.345E+01	 8.735E+01	 4.595E-02	-2.642E-03	 2.401E+01	-4.040E-01	 4.298E-02	-2.236E-02	-2.228E-03	 6.313E+00	 6.902E-01	 6.841E+01
  14.235	 2.352E+02	 2.157E-01	 7.846E-01	 2.370E-02	 7.882E-01	 6.679E+00	 7.283E-01	 8.312E+01	 5.700E+01	 1.098E+00	 6.033E-02	 4.538E+01	 4.382E+01	 8.895E+01	 4.529E-02	-2.523E-03	 2.303E+01	-9.555E-02	 4.646E-02	-2.385E-02	-2.633E-03	 6.782E+00	 8.943E-01	 6.817E+01
  14.250	 2.400E+02	 2.010E-01	 7.797E-01	 4.998E-03	 8.109E-01	 7.163E+00	 9.043E-01	 8.273E+01	 6.034E+01	 3.336E-01	 7.600E-02	 4.574E+01	 4.420E+01	 9.042E+01	 4.475E-02	-2.372E-03	 2.192E+01	 1.882E-02	 4.939E-02	-2.505E-02	-2.998E-03	 7.201E+00	 1.053E+00	 6.792E+01
  14.265	 2.448E+02	 1.802E-01	 7.708E-01	-3.148E-03	 8.231E-01	 7.542E+00	 1.049E+00	 8.232E+01	 6.257E+01	-2.594E-01	 8.733E-02	 4.610E+01	 4.456E+01	 9.171E+01	 4.434E-02	-2.195E-03	 2.082E+01	 1.074E-02	 5.157E-02	-2.596E-02	-3.286E-03	 7.494E+00	 1.172E+00	 6.765E+01
  14.280	 2.496E+02	 1.538E-01	 7.586E-01	-1.769E-02	 8.382E-01	 7.701E+00	 1.209E+00	 8.190E+01	 6.342E+01	-1.037E+00	 9.834E-02	 4.611E+01	 4.459E+01	 9.286E+01	 4.407E-02	-2.001E-03	 1.995E+01	 1.597E-02	 5.280E-02	-2.653E-02	-3.470E-03	 7.601E+00	 1.282E+00	 6.737E+01
  14.295	 2.544E+02	 1.223E-01	 7.442E-01	-6.371E-02	 8.307E-01	 7.620E+00	 1.410E+00	 8.147E+01	 6.290E+01	-2.266E+00	 1.135E-01	 4.539E+01	 4.395E+01	 9.385E+01	 4.395E-02	-1.801E-03	 1.953E+01	 1.510E-01	 5.303E-02	-2.675E-02	-3.527E-03	 7.509E+00	 1.405E+00	 6.708E+01
  14.310	 2.592E+02	 8.694E-02	 7.284E-01	-1.366E-01	 7.457E-01	 7.402E+00	 1.657E+00	 8.105E+01	 6.146E+01	-3.950E+00	 1.312E-01	 4.373E+01	 4.243E+01	 9.459E+01	 4.395E-02	-1.602E-03	 1.972E+01	 4.508E-01	 5.239E-02	-2.660E-02	-3.455E-03	 7.301E+00	 1.566E+00	 6.681E+01
  14.325	 2.640E+02	 4.939E-02	 7.122E-01	-2.094E-01	 6.401E-01	 7.124E+00	 1.888E+00	 8.066E+01	 5.931E+01	-5.590E+00	 1.437E-01	 4.165E+01	 4.052E+01	 9.488E+01	 4.408E-02	-1.410E-03	 2.046E+01	 8.354E-01	 5.109E-02	-2.613E-02	-3.270E-03	 7.018E+00	 1.712E+00	 6.658E+01
[...]
  68.925	 9.591E+01	 9.235E-02	 4.139E+00	 6.240E-01	-5.672E-02	 4.405E+00	-6.946E+00	 8.106E+01	 3.732E+01	 3.830E+01	-2.203E-01	 3.684E+01	 2.998E+01	 9.452E+01	 5.048E-02	 2.556E-03	 2.864E+01	 3.720E+00	 2.972E-02	-8.580E-03	-9.862E-04	 5.419E+00	-4.163E+00	 6.694E+01
  68.940	 1.007E+02	 5.858E-02	 4.106E+00	 6.185E-01	-5.027E-02	 4.485E+00	-6.883E+00	 8.144E+01	 3.793E+01	 3.799E+01	-2.208E-01	 3.636E+01	 2.945E+01	 9.445E+01	 5.040E-02	 2.754E-03	 2.871E+01	 3.122E+00	 2.978E-02	-8.447E-03	-9.758E-04	 5.470E+00	-4.111E+00	 6.717E+01
  68.955	 1.055E+02	 2.593E-02	 4.074E+00	 6.072E-01	-2.878E-02	 4.605E+00	-6.762E+00	 8.182E+01	 3.864E+01	 3.734E+01	-2.187E-01	 3.701E+01	 3.008E+01	 9.381E+01	 5.032E-02	 2.937E-03	 2.858E+01	 2.594E+00	 3.024E-02	-8.801E-03	-1.002E-03	 5.543E+00	-4.014E+00	 6.740E+01
  68.970	 1.103E+02	-7.202E-03	 4.043E+00	 5.901E-01	 3.284E-02	 4.755E+00	-6.601E+00	 8.218E+01	 3.946E+01	 3.642E+01	-2.142E-01	 3.853E+01	 3.167E+01	 9.280E+01	 5.025E-02	 3.089E-03	 2.827E+01	 2.449E+00	 3.105E-02	-9.564E-03	-1.067E-03	 5.633E+00	-3.887E+00	 6.762E+01
  68.985	 1.151E+02	-4.217E-02	 4.015E+00	 5.687E-01	 1.094E-01	 4.919E+00	-6.416E+00	 8.251E+01	 4.043E+01	 3.532E+01	-2.075E-01	 4.027E+01	 3.360E+01	 9.172E+01	 5.019E-02	 3.200E-03	 2.792E+01	 2.820E+00	 3.210E-02	-1.056E-02	-1.162E-03	 5.753E+00	-3.738E+00	 6.782E+01
  69.000	 1.199E+02	-7.988E-02	 3.990E+00	 5.341E-01	 1.235E-01	 5.073E+00	-6.198E+00	 8.282E+01	 4.143E+01	 3.404E+01	-1.992E-01	 4.158E+01	 3.519E+01	 9.076E+01	 5.014E-02	 3.267E-03	 2.763E+01	 3.605E+00	 3.325E-02	-1.159E-02	-1.277E-03	 5.862E+00	-3.567E+00	 6.801E+01
  69.015	 1.247E+02	-1.206E-01	 3.966E+00	 4.998E-01	 9.567E-02	 5.205E+00	-5.968E+00	 8.311E+01	 4.238E+01	 3.274E+01	-1.909E-01	 4.211E+01	 3.602E+01	 9.012E+01	 5.011E-02	 3.297E-03	 2.750E+01	 4.506E+00	 3.435E-02	-1.247E-02	-1.401E-03	 5.962E+00	-3.391E+00	 6.820E+01
  69.030	 1.295E+02	-1.638E-01	 3.945E+00	 4.759E-01	 7.892E-02	 5.340E+00	-5.743E+00	 8.339E+01	 4.325E+01	 3.160E+01	-1.841E-01	 4.197E+01	 3.612E+01	 8.979E+01	 5.009E-02	 3.299E-03	 2.754E+01	 5.173E+00	 3.530E-02	-1.310E-02	-1.521E-03	 6.053E+00	-3.230E+00	 6.837E+01
  69.045	 1.343E+02	-2.093E-01	 3.925E+00	 4.638E-01	 7.946E-02	 5.441E+00	-5.526E+00	 8.365E+01	 4.388E+01	 3.060E+01	-1.786E-01	 4.128E+01	 3.554E+01	 8.973E+01	 5.009E-02	 3.281E-03	 2.770E+01	 5.360E+00	 3.603E-02	-1.346E-02	-1.622E-03	 6.095E+00	-3.088E+00	 6.854E+01
  69.060	 1.391E+02	-2.568E-01	 3.907E+00	 4.524E-01	 1.012E-01	 5.495E+00	-5.290E+00	 8.389E+01	 4.429E+01	 2.955E+01	-1.725E-01	 4.026E+01	 3.452E+01	 8.969E+01	 5.012E-02	 3.246E-03	 2.789E+01	 5.017E+00	 3.646E-02	-1.362E-02	-1.689E-03	 6.109E+00	-2.945E+00	 6.869E+01
  69.075	 1.439E+02	-3.057E-01	 3.890E+00	 4.274E-01	 1.210E-01	 5.509E+00	-5.022E+00	 8.410E+01	 4.464E+01	 2.825E+01	-1.632E-01	 3.905E+01	 3.322E+01	 8.958E+01	 5.017E-02	 3.191E-03	 2.804E+01	 4.295E+00	 3.656E-02	-1.363E-02	-1.708E-03	 6.136E+00	-2.783E+00	 6.881E+01
  69.090	 1.487E+02	-3.548E-01	 3.875E+00	 3.879E-01	 1.158E-01	 5.427E+00	-4.694E+00	 8.427E+01	 4.484E+01	 2.658E+01	-1.500E-01	 3.763E+01	 3.170E+01	 8.937E+01	 5.024E-02	 3.109E-03	 2.810E+01	 3.463E+00	 3.629E-02	-1.354E-02	-1.672E-03	 6.116E+00	-2.580E+00	 6.892E+01
  69.105	 1.535E+02	-4.018E-01	 3.863E+00	 3.430E-01	 7.924E-02	 5.274E+00	-4.327E+00	 8.444E+01	 4.481E+01	 2.470E+01	-1.352E-01	 3.629E+01	 3.030E+01	 8.901E+01	 5.034E-02	 2.995E-03	 2.810E+01	 2.781E+00	 3.569E-02	-1.339E-02	-1.591E-03	 6.033E+00	-2.355E+00	 6.902E+01
  69.120	 1.583E+02	-4.441E-01	 3.852E+00	 3.070E-01	 5.249E-02	 5.111E+00	-3.976E+00	 8.458E+01	 4.458E+01	 2.297E+01	-1.220E-01	 3.538E+01	 2.939E+01	 8.867E+01	 5.047E-02	 2.844E-03	 2.812E+01	 2.410E+00	 3.476E-02	-1.320E-02	-1.474E-03	 5.933E+00	-2.147E+00	 6.911E+01
  69.135	 1.631E+02	-4.786E-01	 3.844E+00	 2.970E-01	 7.236E-02	 4.900E+00	-3.649E+00	 8.472E+01	 4.395E+01	 2.158E+01	-1.131E-01	 3.504E+01	 2.914E+01	 8.817E+01	 5.060E-02	 2.658E-03	 2.820E+01	 2.372E+00	 3.360E-02	-1.296E-02	-1.339E-03	 5.806E+00	-1.984E+00	 6.920E+01
  69.150	 1.679E+02	-5.034E-01	 3.837E+00	 3.093E-01	 1.652E-01	 4.636E+00	-3.348E+00	 8.483E+01	 4.291E+01	 2.052E+01	-1.082E-01	 3.516E+01	 2.940E+01	 8.751E+01	 5.075E-02	 2.442E-03	 2.839E+01	 2.566E+00	 3.234E-02	-1.271E-02	-1.198E-03	 5.648E+00	-1.863E+00	 6.927E+01
  69.165	 1.727E+02	-5.184E-01	 3.833E+00	 3.885E-01	 3.588E-01	 4.332E+00	-2.942E+00	 8.491E+01	 4.103E+01	 1.911E+01	-1.053E-01	 3.510E+01	 2.950E+01	 8.643E+01	 5.089E-02	 2.206E-03	 2.872E+01	 2.823E+00	 3.110E-02	-1.251E-02	-1.062E-03	 5.276E+00	-1.665E+00	 6.932E+01
  69.180	 1.775E+02	-5.277E-01	 3.830E+00	 3.633E-01	 5.468E-01	 3.802E+00	-2.499E+00	 8.490E+01	 3.786E+01	 1.687E+01	-8.918E-02	 3.489E+01	 2.940E+01	 8.518E+01	 5.102E-02	 1.961E-03	 2.919E+01	 2.937E+00	 2.963E-02	-1.243E-02	-9.383E-04	 4.658E+00	-1.450E+00	 6.928E+01
  69.195	 1.823E+02	-5.368E-01	 3.827E+00	 1.648E-01	 3.860E-01	 3.170E+00	-1.955E+00	 8.482E+01	 3.548E+01	 1.315E+01	-5.249E-02	 3.347E+01	 2.798E+01	 8.475E+01	 5.112E-02	 1.720E-03	 2.992E+01	 2.804E+00	 2.773E-02	-1.239E-02	-8.207E-04	 4.191E+00	-1.098E+00	 6.921E+01
  69.210	 1.871E+02	-5.403E-01	 3.823E+00	-7.408E-03	 1.816E-01	 3.224E+00	-1.562E+00	 8.481E+01	 3.616E+01	 1.033E+01	-2.367E-02	 3.203E+01	 2.643E+01	 8.466E+01	 5.117E-02	 1.491E-03	 3.082E+01	 2.316E+00	 2.649E-02	-1.239E-02	-7.350E-04	 4.391E+00	-7.879E-01	 6.923E+01
  69.225	 1.919E+02	-5.275E-01	 3.818E+00	-1.761E-02	-8.829E-02	 4.030E+00	-1.441E+00	 8.488E+01	 3.792E+01	 1.000E+01	-2.297E-02	 3.209E+01	 2.633E+01	 8.382E+01	 5.119E-02	 1.281E-03	 3.135E+01	 1.494E+00	 2.709E-02	-1.256E-02	-7.133E-04	 4.827E+00	-6.906E-01	 6.933E+01
  69.240	 1.967E+02	-5.022E-01	 3.812E+00	 7.969E-02	-2.301E-01	 4.806E+00	-1.457E+00	 8.491E+01	 3.924E+01	 1.123E+01	-3.716E-02	 3.445E+01	 2.849E+01	 8.311E+01	 5.120E-02	 1.091E-03	 3.117E+01	 5.645E-01	 2.886E-02	-1.310E-02	-7.573E-04	 5.197E+00	-7.496E-01	 6.938E+01
  69.255	 2.015E+02	-4.742E-01	 3.805E+00	 1.597E-01	-3.077E-01	 5.249E+00	-1.498E+00	 8.483E+01	 4.009E+01	 1.236E+01	-4.714E-02	 3.882E+01	 3.262E+01	 8.342E+01	 5.123E-02	 9.132E-04	 3.034E+01	-1.128E-01	 3.049E-02	-1.408E-02	-8.513E-04	 5.490E+00	-8.337E-01	 6.933E+01
  69.270	 2.063E+02	-4.482E-01	 3.799E+00	 1.700E-01	-3.643E-01	 5.384E+00	-1.380E+00	 8.467E+01	 4.044E+01	 1.209E+01	-4.536E-02	 4.296E+01	 3.660E+01	 8.462E+01	 5.126E-02	 7.436E-04	 2.920E+01	-2.177E-01	 3.151E-02	-1.535E-02	-9.745E-04	 5.564E+00	-7.816E-01	 6.921E+01
  69.285	 2.111E+02	-4.245E-01	 3.791E+00	 1.244E-01	-3.198E-01	 5.382E+00	-1.097E+00	 8.448E+01	 4.055E+01	 1.044E+01	-3.324E-02	 4.514E+01	 3.877E+01	 8.611E+01	 5.129E-02	 5.833E-04	 2.818E+01	 2.784E-01	 3.209E-02	-1.656E-02	-1.109E-03	 5.528E+00	-5.879E-01	 6.908E+01
  69.300	 2.159E+02	-4.025E-01	 3.781E+00	 5.283E-02	-1.889E-01	 5.327E+00	-6.754E-01	 8.429E+01	 4.052E+01	 7.849E+00	-1.475E-02	 4.438E+01	 3.815E+01	 8.734E+01	 5.132E-02	 4.437E-04	 2.764E+01	 1.098E+00	 3.260E-02	-1.738E-02	-1.229E-03	 5.412E+00	-2.883E-01	 6.894E+01
  69.315	 2.207E+02	-3.842E-01	 3.768E+00	-2.991E-02	-5.874E-02	 5.346E+00	-2.013E-01	 8.407E+01	 4.094E+01	 4.931E+00	 6.700E-03	 4.132E+01	 3.527E+01	 8.816E+01	 5.132E-02	 3.413E-04	 2.776E+01	 1.784E+00	 3.312E-02	-1.767E-02	-1.307E-03	 5.326E+00	 6.107E-02	 6.880E+01
  69.330	 2.255E+02	-3.713E-01	 3.750E+00	-1.033E-01	 1.049E-02	 5.374E+00	 2.336E-01	 8.381E+01	 4.191E+01	 2.370E+00	 2.669E-02	 3.741E+01	 3.148E+01	 8.855E+01	 5.130E-02	 2.908E-04	 2.840E+01	 1.949E+00	 3.352E-02	-1.751E-02	-1.321E-03	 5.353E+00	 3.808E-01	 6.864E+01
  69.345	 2.303E+02	-3.626E-01	 3.729E+00	-1.400E-01	 3.955E-02	 5.446E+00	 5.396E-01	 8.352E+01	 4.317E+01	 8.289E-01	 3.937E-02	 3.457E+01	 2.861E+01	 8.851E+01	 5.128E-02	 2.983E-04	 2.920E+01	 1.457E+00	 3.375E-02	-1.716E-02	-1.278E-03	 5.465E+00	 5.910E-01	 6.848E+01
  69.360	 2.351E+02	-3.554E-01	 3.706E+00	-1.315E-01	 5.618E-02	 5.411E+00	 7.177E-01	 8.322E+01	 4.403E+01	 3.974E-01	 4.215E-02	 3.382E+01	 2.769E+01	 8.835E+01	 5.128E-02	 3.585E-04	 2.977E+01	 5.211E-01	 3.382E-02	-1.688E-02	-1.203E-03	 5.572E+00	 6.716E-01	 6.830E+01
  69.375	 2.399E+02	-3.474E-01	 3.679E+00	-9.619E-02	 6.071E-02	 5.283E+00	 8.066E-01	 8.292E+01	 4.425E+01	 6.591E-01	 3.778E-02	 3.540E+01	 2.902E+01	 8.858E+01	 5.130E-02	 4.558E-04	 2.990E+01	-4.064E-01	 3.369E-02	-1.689E-02	-1.125E-03	 5.539E+00	 6.651E-01	 6.811E+01
  69.390	 2.447E+02	-3.362E-01	 3.651E+00	-5.986E-02	 9.135E-02	 5.183E+00	 8.346E-01	 8.260E+01	 4.414E+01	 1.145E+00	 3.150E-02	 3.865E+01	 3.209E+01	 8.930E+01	 5.135E-02	 5.718E-04	 2.963E+01	-8.442E-01	 3.356E-02	-1.729E-02	-1.074E-03	 5.486E+00	 6.191E-01	 6.791E+01
  69.405	 2.495E+02	-3.207E-01	 3.622E+00	-5.638E-02	 5.995E-02	 5.084E+00	 9.167E-01	 8.227E+01	 4.376E+01	 1.121E+00	 2.960E-02	 4.203E+01	 3.544E+01	 9.057E+01	 5.142E-02	 6.921E-04	 2.911E+01	-5.020E-01	 3.369E-02	-1.804E-02	-1.063E-03	 5.367E+00	 6.272E-01	 6.769E+01
  69.420	 2.543E+02	-3.009E-01	 3.591E+00	-7.375E-02	 2.533E-02	 5.153E+00	 1.059E+00	 8.194E+01	 4.386E+01	 4.583E-01	 3.406E-02	 4.483E+01	 3.836E+01	 9.228E+01	 5.150E-02	 8.122E-04	 2.863E+01	 5.476E-01	 3.422E-02	-1.903E-02	-1.105E-03	 5.364E+00	 7.197E-01	 6.748E+01
  69.435	 2.591E+02	-2.783E-01	 3.558E+00	-1.015E-01	 1.543E-02	 5.271E+00	 1.257E+00	 8.158E+01	 4.413E+01	-7.096E-01	 4.306E-02	 4.647E+01	 4.025E+01	 9.407E+01	 5.159E-02	 9.369E-04	 2.832E+01	 1.944E+00	 3.500E-02	-2.005E-02	-1.196E-03	 5.395E+00	 8.768E-01	 6.725E+01
  69.450	 2.639E+02	-2.543E-01	 3.523E+00	-1.325E-01	 5.005E-02	 5.333E+00	 1.450E+00	 8.119E+01	 4.422E+01	-1.985E+00	 5.340E-02	 4.666E+01	 4.073E+01	 9.531E+01	 5.168E-02	 1.076E-03	 2.823E+01	 3.211E+00	 3.581E-02	-2.085E-02	-1.319E-03	 5.403E+00	 1.033E+00	 6.701E+01
  69.465	 2.687E+02	-2.306E-01	 3.486E+00	-1.618E-01	 8.650E-02	 5.333E+00	 1.657E+00	 8.080E+01	 4.405E+01	-3.323E+00	 6.358E-02	 4.517E+01	 3.950E+01	 9.590E+01	 5.178E-02	 1.237E-03	 2.838E+01	 3.959E+00	 3.646E-02	-2.127E-02	-1.451E-03	 5.344E+00	 1.192E+00	 6.677E+01
  69.480	 2.735E+02	-2.089E-01	 3.448E+00	-1.939E-01	 1.047E-01	 5.246E+00	 1.809E+00	 8.039E+01	 4.370E+01	-4.443E+00	 7.254E-02	 4.251E+01	 3.699E+01	 9.565E+01	 5.188E-02	 1.421E-03	 2.872E+01	 4.012E+00	 3.673E-02	-2.124E-02	-1.566E-03	 5.239E+00	 1.314E+00	 6.652E+01
  69.495	 2.783E+02	-1.884E-01	 3.411E+00	-2.066E-01	 1.384E-01	 5.152E+00	 1.901E+00	 8.001E+01	 4.325E+01	-5.126E+00	 7.732E-02	 3.928E+01	 3.382E+01	 9.470E+01	 5.198E-02	 1.622E-03	 2.919E+01	 3.462E+00	 3.675E-02	-2.085E-02	-1.641E-03	 5.130E+00	 1.387E+00	 6.629E+01
  69.510	 2.831E+02	-1.686E-01	 3.374E+00	-2.081E-01	 1.810E-01	 5.073E+00	 1.899E+00	 7.965E+01	 4.287E+01	-5.265E+00	 7.818E-02	 3.640E+01	 3.093E+01	 9.340E+01	 5.208E-02	 1.825E-03	 2.970E+01	 2.608E+00	 3.662E-02	-2.025E-02	-1.665E-03	 5.035E+00	 1.393E+00	 6.608E+01
  69.525	 2.879E+02	-1.490E-01	 3.339E+00	-1.957E-01	 2.081E-01	 5.015E+00	 1.824E+00	 7.932E+01	 4.269E+01	-4.926E+00	 7.572E-02	 3.451E+01	 2.903E+01	 9.223E+01	 5.218E-02	 2.012E-03	 3.013E+01	 1.847E+00	 3.630E-02	-1.962E-02	-1.633E-03	 4.997E+00	 1.344E+00	 6.588E+01
  69.540	 2.927E+02	-1.288E-01	 3.306E+00	-1.753E-01	 2.156E-01	 4.949E+00	 1.677E+00	 7.899E+01	 4.264E+01	-4.121E+00	 6.992E-02	 3.398E+01	 2.854E+01	 9.136E+01	 5.228E-02	 2.166E-03	 3.038E+01	 1.513E+00	 3.575E-02	-1.903E-02	-1.548E-03	 4.977E+00	 1.244E+00	 6.569E+01
  69.555	 2.975E+02	-1.065E-01	 3.277E+00	-1.395E-01	 2.141E-01	 4.813E+00	 1.458E+00	 7.868E+01	 4.254E+01	-2.764E+00	 5.925E-02	 3.472E+01	 2.940E+01	 9.073E+01	 5.239E-02	 2.278E-03	 3.039E+01	 1.758E+00	 3.491E-02	-1.850E-02	-1.425E-03	 4.971E+00	 1.080E+00	 6.550E+01
  69.570	 3.023E+02	-8.009E-02	 3.251E+00	-8.148E-02	 2.222E-01	 4.595E+00	 1.163E+00	 7.838E+01	 4.204E+01	-8.484E-01	 4.286E-02	 3.614E+01	 3.105E+01	 9.003E+01	 5.249E-02	 2.344E-03	 3.021E+01	 2.503E+00	 3.382E-02	-1.793E-02	-1.278E-03	 4.904E+00	 8.436E-01	 6.532E+01
  69.585	 3.071E+02	-4.807E-02	 3.229E+00	-3.153E-03	 2.635E-01	 4.329E+00	 8.367E-01	 7.810E+01	 4.105E+01	 1.337E+00	 2.242E-02	 3.753E+01	 3.272E+01	 8.930E+01	 5.259E-02	 2.370E-03	 2.999E+01	 3.474E+00	 3.252E-02	-1.725E-02	-1.122E-03	 4.747E+00	 5.713E-01	 6.514E+01
  69.600	 3.119E+02	-1.016E-02	 3.210E+00	 7.018E-02	 3.500E-01	 4.051E+00	 5.147E-01	 7.782E+01	 3.969E+01	 3.377E+00	 3.281E-03	 3.823E+01	 3.367E+01	 8.851E+01	 5.266E-02	 2.367E-03	 2.991E+01	 4.316E+00	 3.111E-02	-1.643E-02	-9.752E-04	 4.557E+00	 3.024E-01	 6.496E+01
  69.615	 3.167E+02	 3.313E-02	 3.192E+00	 1.118E-01	 4.174E-01	 3.813E+00	 2.373E-01	 7.753E+01	 3.816E+01	 4.765E+00	-8.725E-03	 3.787E+01	 3.348E+01	 8.779E+01	 5.271E-02	 2.345E-03	 3.010E+01	 4.727E+00	 2.966E-02	-1.555E-02	-8.499E-04	 4.308E+00	 1.025E-01	 6.476E+01
  69.630	 3.215E+02	 8.177E-02	 3.177E+00	 1.112E-01	 4.429E-01	 3.636E+00	 6.232E-02	 7.727E+01	 3.665E+01	 5.291E+00	-1.176E-02	 3.642E+01	 3.206E+01	 8.738E+01	 5.271E-02	 2.311E-03	 3.053E+01	 4.566E+00	 2.837E-02	-1.471E-02	-7.582E-04	 4.128E+00	-3.487E-03	 6.457E+01
  69.645	 3.263E+02	 1.352E-01	 3.162E+00	 7.963E-02	 4.081E-01	 3.510E+00	-3.216E-02	 7.704E+01	 3.517E+01	 5.070E+00	-7.649E-03	 3.425E+01	 2.980E+01	 8.720E+01	 5.268E-02	 2.266E-03	 3.106E+01	 3.894E+00	 2.746E-02	-1.404E-02	-7.060E-04	 3.985E+00	-2.124E-02	 6.441E+01
  69.660	 3.311E+02	 1.917E-01	 3.148E+00	 2.948E-02	 3.133E-01	 3.504E+00	-1.044E-01	 7.686E+01	 3.389E+01	 4.560E+00	-1.169E-03	 3.212E+01	 2.753E+01	 8.724E+01	 5.260E-02	 2.205E-03	 3.151E+01	 2.937E+00	 2.702E-02	-1.363E-02	-6.947E-04	 3.890E+00	-5.639E-05	 6.430E+01
  69.675	 3.359E+02	 2.480E-01	 3.135E+00	-1.354E-02	 1.889E-01	 3.588E+00	-2.283E-01	 7.674E+01	 3.287E+01	 4.328E+00	 2.699E-03	 3.073E+01	 2.599E+01	 8.722E+01	 5.248E-02	 2.119E-03	 3.171E+01	 2.012E+00	 2.704E-02	-1.350E-02	-7.209E-04	 3.870E+00	-4.389E-03	 6.424E+01
  69.690	 3.407E+02	 3.003E-01	 3.125E+00	-3.275E-02	 5.474E-02	 3.736E+00	-4.466E-01	 7.668E+01	 3.212E+01	 4.817E+00	 9.005E-04	 3.054E+01	 2.572E+01	 8.711E+01	 5.233E-02	 2.000E-03	 3.157E+01	 1.401E+00	 2.745E-02	-1.360E-02	-7.828E-04	 3.903E+00	-8.529E-02	 6.422E+01
  69.705	 3.455E+02	 3.446E-01	 3.116E+00	-2.398E-02	-8.327E-02	 3.877E+00	-7.754E-01	 7.665E+01	 3.167E+01	 6.179E+00	-6.312E-03	 3.152E+01	 2.671E+01	 8.673E+01	 5.213E-02	 1.844E-03	 3.110E+01	 1.261E+00	 2.811E-02	-1.385E-02	-8.718E-04	 3.976E+00	-2.627E-01	 6.422E+01
  69.720	 3.503E+02	 3.775E-01	 3.111E+00	 1.659E-02	-2.434E-01	 3.961E+00	-1.187E+00	 7.664E+01	 3.153E+01	 8.309E+00	-1.797E-02	 3.308E+01	 2.839E+01	 8.602E+01	 5.190E-02	 1.653E-03	 3.044E+01	 1.568E+00	 2.883E-02	-1.409E-02	-9.705E-04	 4.082E+00	-5.194E-01	 6.424E+01
  69.735	 3.551E+02	 3.988E-01	 3.107E+00	 9.118E-02	-3.487E-01	 3.818E+00	-1.663E+00	 7.662E+01	 3.116E+01	 1.113E+01	-3.400E-02	 3.441E+01	 2.990E+01	 8.496E+01	 5.162E-02	 1.437E-03	 2.977E+01	 2.120E+00	 2.900E-02	-1.405E-02	-1.053E-03	 4.117E+00	-8.639E-01	 6.424E+01
  69.750	 3.599E+02	 4.131E-01	 3.105E+00	 1.987E-01	-3.356E-01	 3.428E+00	-2.158E+00	 7.657E+01	 2.989E+01	 1.437E+01	-5.410E-02	 3.462E+01	 3.026E+01	 8.400E+01	 5.130E-02	 1.211E-03	 2.929E+01	 2.624E+00	 2.839E-02	-1.340E-02	-1.087E-03	 3.972E+00	-1.276E+00	 6.421E+01
  69.765	 4.712E+00	 4.239E-01	 3.103E+00	 2.954E-01	-1.872E-01	 3.550E+00	-2.577E+00	 7.660E+01	 2.964E+01	 1.704E+01	-7.045E-02	 3.348E+01	 2.914E+01	 8.397E+01	 5.092E-02	 9.915E-04	 2.928E+01	 2.788E+00	 2.798E-02	-1.232E-02	-1.067E-03	 3.944E+00	-1.597E+00	 6.422E+01
  69.780	 9.512E+00	 4.248E-01	 3.099E+00	 2.956E-01	-1.347E-01	 3.754E+00	-2.823E+00	 7.660E+01	 3.093E+01	 1.795E+01	-7.425E-02	 3.137E+01	 2.697E+01	 8.364E+01	 5.048E-02	 7.936E-04	 2.948E+01	 2.412E+00	 2.811E-02	-1.141E-02	-1.001E-03	 4.126E+00	-1.700E+00	 6.421E+01
  69.795	 1.431E+01	 4.137E-01	 3.093E+00	 2.264E-01	-1.928E-01	 3.814E+00	-2.964E+00	 7.662E+01	 3.311E+01	 1.774E+01	-7.045E-02	 3.009E+01	 2.551E+01	 8.287E+01	 5.002E-02	 6.252E-04	 2.950E+01	 1.486E+00	 2.824E-02	-1.096E-02	-9.004E-04	 4.410E+00	-1.674E+00	 6.421E+01
  69.810	 1.911E+01	 3.976E-01	 3.084E+00	 1.922E-01	-2.002E-01	 3.871E+00	-3.166E+00	 7.670E+01	 3.506E+01	 1.812E+01	-7.246E-02	 3.080E+01	 2.595E+01	 8.255E+01	 4.955E-02	 4.841E-04	 2.913E+01	 2.950E-01	 2.822E-02	-1.088E-02	-8.000E-04	 4.631E+00	-1.712E+00	 6.427E+01
  69.825	 2.391E+01	 3.830E-01	 3.075E+00	 2.371E-01	-7.030E-02	 3.905E+00	-3.521E+00	 7.685E+01	 3.607E+01	 1.997E+01	-8.791E-02	 3.342E+01	 2.828E+01	 8.286E+01	 4.910E-02	 3.604E-04	 2.832E+01	-6.984E-01	 2.811E-02	-1.094E-02	-7.306E-04	 4.741E+00	-1.928E+00	 6.437E+01
  69.840	 2.871E+01	 3.718E-01	 3.065E+00	 3.376E-01	 1.018E-01	 3.810E+00	-3.992E+00	 7.700E+01	 3.599E+01	 2.294E+01	-1.143E-01	 3.668E+01	 3.136E+01	 8.363E+01	 4.865E-02	 2.439E-04	 2.723E+01	-1.083E+00	 2.777E-02	-1.090E-02	-6.997E-04	 4.704E+00	-2.287E+00	 6.446E+01
  69.855	 3.351E+01	 3.639E-01	 3.053E+00	 4.429E-01	 2.470E-01	 3.683E+00	-4.477E+00	 7.713E+01	 3.546E+01	 2.606E+01	-1.419E-01	 3.903E+01	 3.370E+01	 8.471E+01	 4.822E-02	 1.307E-04	 2.620E+01	-7.131E-01	 2.731E-02	-1.065E-02	-7.006E-04	 4.627E+00	-2.668E+00	 6.453E+01
  69.870	 3.831E+01	 3.592E-01	 3.040E+00	 5.064E-01	 2.950E-01	 3.664E+00	-4.881E+00	 7.726E+01	 3.518E+01	 2.842E+01	-1.606E-01	 3.940E+01	 3.423E+01	 8.591E+01	 4.780E-02	 2.759E-05	 2.552E+01	 2.111E-01	 2.713E-02	-1.024E-02	-7.284E-04	 4.626E+00	-2.960E+00	 6.460E+01
  69.885	 4.311E+01	 3.572E-01	 3.023E+00	 5.093E-01	 2.208E-01	 3.869E+00	-5.151E+00	 7.744E+01	 3.567E+01	 2.955E+01	-1.659E-01	 3.813E+01	 3.318E+01	 8.686E+01	 4.737E-02	-5.040E-05	 2.529E+01	 1.218E+00	 2.751E-02	-9.855E-03	-7.755E-04	 4.777E+00	-3.096E+00	 6.470E+01
  69.900	 4.791E+01	 3.559E-01	 3.004E+00	 4.670E-01	 5.242E-02	 4.219E+00	-5.294E+00	 7.769E+01	 3.683E+01	 2.965E+01	-1.607E-01	 3.641E+01	 3.162E+01	 8.723E+01	 4.695E-02	-8.651E-05	 2.537E+01	 1.814E+00	 2.840E-02	-9.721E-03	-8.375E-04	 5.041E+00	-3.095E+00	 6.484E+01
  69.915	 5.271E+01	 3.534E-01	 2.981E+00	 4.158E-01	-1.384E-01	 4.541E+00	-5.383E+00	 7.798E+01	 3.801E+01	 2.941E+01	-1.537E-01	 3.555E+01	 3.080E+01	 8.707E+01	 4.656E-02	-7.065E-05	 2.546E+01	 1.733E+00	 2.955E-02	-9.935E-03	-9.090E-04	 5.296E+00	-3.052E+00	 6.503E+01
  69.930	 5.751E+01	 3.480E-01	 2.956E+00	 3.990E-01	-2.398E-01	 4.787E+00	-5.498E+00	 7.833E+01	 3.885E+01	 2.960E+01	-1.525E-01	 3.627E+01	 3.138E+01	 8.673E+01	 4.621E-02	-4.575E-06	 2.539E+01	 1.078E+00	 3.069E-02	-1.042E-02	-9.820E-04	 5.474E+00	-3.061E+00	 6.526E+01
  69.945	 6.231E+01	 3.373E-01	 2.928E+00	 4.184E-01	-2.428E-01	 4.868E+00	-5.678E+00	 7.868E+01	 3.919E+01	 3.051E+01	-1.598E-01	 3.828E+01	 3.318E+01	 8.646E+01	 4.591E-02	 9.918E-05	 2.506E+01	 2.399E-01	 3.148E-02	-1.096E-02	-1.044E-03	 5.533E+00	-3.164E+00	 6.549E+01
  69.960	 6.711E+01	 3.201E-01	 2.899E+00	 4.706E-01	-1.559E-01	 4.757E+00	-5.920E+00	 7.900E+01	 3.917E+01	 3.206E+01	-1.750E-01	 4.045E+01	 3.518E+01	 8.665E+01	 4.567E-02	 2.234E-04	 2.457E+01	-3.034E-01	 3.174E-02	-1.128E-02	-1.081E-03	 5.503E+00	-3.350E+00	 6.569E+01
  69.975	 7.191E+01	 2.980E-01	 2.869E+00	 5.378E-01	-1.732E-02	 4.624E+00	-6.206E+00	 7.930E+01	 3.918E+01	 3.397E+01	-1.954E-01	 4.161E+01	 3.632E+01	 8.762E+01	 4.549E-02	 3.536E-04	 2.410E+01	-2.332E-01	 3.167E-02	-1.121E-02	-1.090E-03	 5.474E+00	-3.582E+00	 6.588E+01
  69.990	 7.671E+01	 2.734E-01	 2.837E+00	 6.069E-01	 1.421E-01	 4.555E+00	-6.480E+00	 7.960E+01	 3.943E+01	 3.579E+01	-2.165E-01	 4.133E+01	 3.618E+01	 8.913E+01	 4.535E-02	 4.833E-04	 2.379E+01	 4.535E-01	 3.142E-02	-1.072E-02	-1.074E-03	 5.476E+00	-3.799E+00	 6.606E+01
