
These predictions were generated by FAST (v7.00.02a-bjj, 26-Jan-2012)-Compiled as S-Function for Simulink on 26-Jan-2012 at 20:31:31.
The aerodynamic calculations were made by AeroDyn (v13.00.01a-bjj, 30-Jan-2012).

 FAST certification Test #17: FAST model of a SWRT 3-bladed upwind turbine.  Note- SWRT rotates in CCW direction- some inputs will be mirror image of the actual turbine.

    Time	TotWindV	TwrClrnc1	TwrClrnc2	TwrClrnc3	LSSTipV	TailFurl	TailFurlV	TailFurlA	NacYaw	NacYawErr	RootFzb3	RootMEdg3	RootMFlp3	LSShftFxs	LSShftMxs	CThrstArm	GenCp	GenCq	TFrlBrM	YawBrFzn
   (sec)	(m/sec)	(m)	(m)	(m)	(rpm)	(deg)	(deg/sec)	(deg/sec2)	(deg)	(deg)	(kN)	(kN·m)	(kN·m)	(kN)	(kN·m)	(-)	(-)	(-)	(kN·m)	(kN)
  10.011	 1.708E+01	 1.120E+00	 3.336E+00	 3.232E+00	 4.373E+02	 2.611E+00	 1.236E+00	-4.854E+00	-4.623E+00	 2.029E+00	 3.629E+01	 1.641E-01	 4.299E-01	 2.693E+00	 2.095E-01	 5.241E-02	 1.211E-01	 1.874E-02	-1.151E-01	-5.261E+00
  10.023	 1.719E+01	 1.721E+00	 3.477E+00	 2.980E+00	 4.374E+02	 2.626E+00	 1.344E+00	 1.783E+01	-4.659E+00	 2.043E+00	 3.630E+01	 2.036E-01	 4.205E-01	 2.659E+00	 2.093E-01	 5.001E-02	 1.185E-01	 1.846E-02	-1.108E-01	-5.208E+00
  10.034	 1.731E+01	 2.666E+00	 3.506E+00	 2.654E+00	 4.375E+02	 2.642E+00	 1.453E+00	-5.567E+00	-4.697E+00	 2.060E+00	 3.631E+01	 1.750E-01	 3.811E-01	 2.623E+00	 2.089E-01	 4.989E-02	 1.160E-01	 1.818E-02	-1.059E-01	-5.126E+00
  10.046	 1.744E+01	 3.127E+00	 3.410E+00	 1.803E+00	 4.377E+02	 2.658E+00	 1.152E+00	-4.217E+01	-4.735E+00	 2.077E+00	 3.634E+01	 9.302E-02	 3.080E-01	 2.617E+00	 2.084E-01	 5.270E-02	 1.134E-01	 1.790E-02	-1.012E-01	-5.155E+00
  10.058	 1.742E+01	 3.349E+00	 3.215E+00	 1.114E+00	 4.378E+02	 2.668E+00	 5.960E-01	-4.621E+01	-4.767E+00	 2.209E+00	 3.638E+01	-6.633E-03	 2.391E-01	 2.612E+00	 2.082E-01	 5.677E-02	 1.135E-01	 1.791E-02	-9.829E-02	-5.234E+00
  10.069	 1.733E+01	 3.483E+00	 2.961E+00	 1.794E+00	 4.379E+02	 2.673E+00	 2.195E-01	-2.344E+01	-4.794E+00	 2.402E+00	 3.642E+01	-1.185E-01	 1.845E-01	 2.599E+00	 2.079E-01	 5.549E-02	 1.151E-01	 1.805E-02	-9.704E-02	-5.202E+00
  10.081	 1.725E+01	 3.504E+00	 2.613E+00	 2.719E+00	 4.380E+02	 2.674E+00	-1.038E-01	-3.615E+01	-4.818E+00	 2.593E+00	 3.645E+01	-2.224E-01	 1.501E-01	 2.582E+00	 2.075E-01	 5.267E-02	 1.166E-01	 1.821E-02	-9.686E-02	-5.135E+00
  10.093	 1.716E+01	 3.400E+00	 1.732E+00	 3.145E+00	 4.380E+02	 2.670E+00	-5.416E-01	-3.006E+01	-4.839E+00	 2.789E+00	 3.647E+01	-2.905E-01	 1.559E-01	 2.553E+00	 2.071E-01	 4.883E-02	 1.183E-01	 1.837E-02	-9.810E-02	-5.165E+00
  10.104	 1.707E+01	 3.200E+00	 1.117E+00	 3.362E+00	 4.381E+02	 2.662E+00	-7.520E-01	-8.005E+00	-4.855E+00	 2.894E+00	 3.650E+01	-2.731E-01	 1.948E-01	 2.546E+00	 2.069E-01	 5.031E-02	 1.200E-01	 1.853E-02	-1.004E-01	-5.203E+00
  10.116	 1.698E+01	 2.943E+00	 1.870E+00	 3.488E+00	 4.382E+02	 2.653E+00	-8.451E-01	-1.512E+01	-4.869E+00	 2.842E+00	 3.651E+01	-1.655E-01	 2.522E-01	 2.564E+00	 2.068E-01	 5.243E-02	 1.218E-01	 1.871E-02	-1.031E-01	-5.173E+00
  10.127	 1.689E+01	 2.567E+00	 2.770E+00	 3.500E+00	 4.383E+02	 2.642E+00	-1.137E+00	-3.128E+01	-4.881E+00	 2.788E+00	 3.651E+01	-1.628E-02	 3.139E-01	 2.560E+00	 2.064E-01	 4.978E-02	 1.236E-01	 1.889E-02	-1.065E-01	-5.153E+00
  10.139	 1.680E+01	 1.659E+00	 3.164E+00	 3.388E+00	 4.384E+02	 2.626E+00	-1.404E+00	-6.363E+00	-4.890E+00	 2.727E+00	 3.649E+01	 1.193E-01	 3.711E-01	 2.563E+00	 2.063E-01	 4.539E-02	 1.256E-01	 1.908E-02	-1.112E-01	-5.206E+00
  10.151	 1.671E+01	 1.127E+00	 3.375E+00	 3.182E+00	 4.385E+02	 2.610E+00	-1.249E+00	 3.235E+01	-4.896E+00	 2.653E+00	 3.648E+01	 1.922E-01	 3.988E-01	 2.600E+00	 2.061E-01	 4.235E-02	 1.275E-01	 1.926E-02	-1.158E-01	-5.221E+00
  10.162	 1.665E+01	 1.947E+00	 3.493E+00	 2.924E+00	 4.385E+02	 2.598E+00	-8.415E-01	 2.571E+01	-4.906E+00	 2.290E+00	 3.649E+01	 1.931E-01	 3.926E-01	 2.579E+00	 2.059E-01	 4.351E-02	 1.288E-01	 1.938E-02	-1.193E-01	-5.158E+00
  10.174	 1.660E+01	 2.818E+00	 3.496E+00	 2.517E+00	 4.386E+02	 2.590E+00	-7.907E-01	-1.131E+01	-4.916E+00	 1.927E+00	 3.650E+01	 1.434E-01	 3.568E-01	 2.521E+00	 2.056E-01	 4.591E-02	 1.302E-01	 1.951E-02	-1.219E-01	-5.142E+00
  10.186	 1.654E+01	 3.182E+00	 3.375E+00	 1.587E+00	 4.387E+02	 2.579E+00	-8.947E-01	-1.451E+00	-4.926E+00	 1.543E+00	 3.653E+01	 6.613E-02	 2.932E-01	 2.517E+00	 2.054E-01	 4.640E-02	 1.316E-01	 1.965E-02	-1.250E-01	-5.187E+00
  10.197	 1.648E+01	 3.389E+00	 3.163E+00	 1.156E+00	 4.387E+02	 2.569E+00	-8.759E-01	 1.445E+00	-4.933E+00	 1.172E+00	 3.654E+01	-3.992E-02	 2.299E-01	 2.536E+00	 2.051E-01	 5.002E-02	 1.331E-01	 1.978E-02	-1.280E-01	-5.208E+00
  10.209	 1.641E+01	 3.499E+00	 2.902E+00	 2.029E+00	 4.388E+02	 2.559E+00	-9.206E-01	-8.976E+00	-4.940E+00	 1.279E+00	 3.656E+01	-1.549E-01	 1.728E-01	 2.489E+00	 2.049E-01	 5.149E-02	 1.348E-01	 1.995E-02	-1.310E-01	-5.183E+00
  10.220	 1.632E+01	 3.492E+00	 2.459E+00	 2.866E+00	 4.388E+02	 2.548E+00	-9.857E-01	 2.312E+00	-4.945E+00	 1.557E+00	 3.658E+01	-2.514E-01	 1.449E-01	 2.433E+00	 2.047E-01	 4.608E-02	 1.367E-01	 2.013E-02	-1.343E-01	-5.153E+00
  10.232	 1.624E+01	 3.362E+00	 1.512E+00	 3.202E+00	 4.389E+02	 2.536E+00	-9.071E-01	 6.332E+00	-4.948E+00	 1.848E+00	 3.659E+01	-2.907E-01	 1.518E-01	 2.446E+00	 2.045E-01	 4.561E-02	 1.388E-01	 2.032E-02	-1.377E-01	-5.171E+00
  10.244	 1.616E+01	 3.144E+00	 1.193E+00	 3.402E+00	 4.389E+02	 2.526E+00	-8.152E-01	 1.572E+01	-4.951E+00	 2.130E+00	 3.662E+01	-2.413E-01	 1.882E-01	 2.487E+00	 2.044E-01	 4.643E-02	 1.408E-01	 2.052E-02	-1.407E-01	-5.204E+00
  10.255	 1.611E+01	 2.882E+00	 2.111E+00	 3.503E+00	 4.389E+02	 2.518E+00	-5.771E-01	 1.818E+01	-4.955E+00	 2.316E+00	 3.662E+01	-1.231E-01	 2.462E-01	 2.476E+00	 2.044E-01	 4.774E-02	 1.418E-01	 2.061E-02	-1.430E-01	-5.165E+00
  10.267	 1.611E+01	 2.398E+00	 2.910E+00	 3.486E+00	 4.390E+02	 2.512E+00	-4.795E-01	 2.315E+00	-4.958E+00	 2.374E+00	 3.661E+01	 1.809E-02	 3.072E-01	 2.473E+00	 2.043E-01	 4.644E-02	 1.417E-01	 2.059E-02	-1.447E-01	-5.143E+00
  10.279	 1.611E+01	 1.438E+00	 3.221E+00	 3.347E+00	 4.390E+02	 2.507E+00	-4.119E-01	 1.358E+01	-4.961E+00	 2.433E+00	 3.660E+01	 1.423E-01	 3.665E-01	 2.500E+00	 2.042E-01	 4.393E-02	 1.415E-01	 2.057E-02	-1.464E-01	-5.193E+00
  10.290	 1.611E+01	 1.240E+00	 3.414E+00	 3.123E+00	 4.390E+02	 2.504E+00	-1.045E-01	 4.136E+01	-4.964E+00	 2.490E+00	 3.659E+01	 2.056E-01	 3.915E-01	 2.498E+00	 2.040E-01	 4.393E-02	 1.413E-01	 2.055E-02	-1.473E-01	-5.211E+00
  10.302	 1.611E+01	 2.193E+00	 3.506E+00	 2.861E+00	 4.391E+02	 2.505E+00	 3.892E-01	 3.509E+01	-4.970E+00	 2.593E+00	 3.658E+01	 1.947E-01	 3.780E-01	 2.435E+00	 2.039E-01	 4.561E-02	 1.413E-01	 2.054E-02	-1.467E-01	-5.136E+00
  10.313	 1.607E+01	 2.950E+00	 3.480E+00	 2.333E+00	 4.391E+02	 2.512E+00	 6.372E-01	 1.148E+01	-4.979E+00	 2.989E+00	 3.659E+01	 1.297E-01	 3.365E-01	 2.437E+00	 2.038E-01	 4.460E-02	 1.422E-01	 2.063E-02	-1.448E-01	-5.121E+00
  10.325	 1.603E+01	 3.240E+00	 3.331E+00	 1.370E+00	 4.391E+02	 2.520E+00	 7.450E-01	 1.186E+01	-4.988E+00	 3.405E+00	 3.661E+01	 3.764E-02	 2.704E-01	 2.459E+00	 2.036E-01	 4.695E-02	 1.432E-01	 2.072E-02	-1.423E-01	-5.185E+00
  10.337	 1.599E+01	 3.426E+00	 3.102E+00	 1.300E+00	 4.392E+02	 2.530E+00	 1.002E+00	 3.144E+01	-4.997E+00	 3.805E+00	 3.662E+01	-6.770E-02	 2.127E-01	 2.461E+00	 2.037E-01	 4.820E-02	 1.441E-01	 2.080E-02	-1.394E-01	-5.182E+00
  10.348	 1.595E+01	 3.508E+00	 2.839E+00	 2.274E+00	 4.392E+02	 2.543E+00	 1.271E+00	 9.732E+00	-5.009E+00	 4.210E+00	 3.665E+01	-1.731E-01	 1.667E-01	 2.485E+00	 2.037E-01	 4.962E-02	 1.451E-01	 2.089E-02	-1.354E-01	-5.126E+00
  10.360	 1.597E+01	 3.467E+00	 2.226E+00	 3.003E+00	 4.393E+02	 2.558E+00	 1.302E+00	 6.302E-01	-5.021E+00	 4.383E+00	 3.667E+01	-2.560E-01	 1.587E-01	 2.521E+00	 2.035E-01	 4.737E-02	 1.444E-01	 2.082E-02	-1.308E-01	-5.142E+00
  10.372	 1.600E+01	 3.314E+00	 1.305E+00	 3.258E+00	 4.393E+02	 2.574E+00	 1.320E+00	 3.096E+00	-5.033E+00	 4.500E+00	 3.669E+01	-2.711E-01	 1.780E-01	 2.497E+00	 2.034E-01	 5.297E-02	 1.435E-01	 2.073E-02	-1.263E-01	-5.193E+00
  10.383	 1.603E+01	 3.080E+00	 1.368E+00	 3.436E+00	 4.394E+02	 2.589E+00	 1.468E+00	 2.322E+01	-5.046E+00	 4.617E+00	 3.672E+01	-1.992E-01	 2.276E-01	 2.492E+00	 2.035E-01	 5.093E-02	 1.426E-01	 2.064E-02	-1.216E-01	-5.160E+00
  10.395	 1.606E+01	 2.816E+00	 2.355E+00	 3.508E+00	 4.394E+02	 2.607E+00	 1.629E+00	-5.760E+00	-5.061E+00	 4.736E+00	 3.671E+01	-6.230E-02	 2.966E-01	 2.476E+00	 2.032E-01	 5.248E-02	 1.417E-01	 2.055E-02	-1.162E-01	-5.106E+00
  10.406	 1.596E+01	 2.191E+00	 3.018E+00	 3.462E+00	 4.395E+02	 2.625E+00	 1.340E+00	-3.490E+01	-5.075E+00	 4.733E+00	 3.667E+01	 7.268E-02	 3.560E-01	 2.433E+00	 2.030E-01	 5.629E-02	 1.444E-01	 2.080E-02	-1.111E-01	-5.159E+00
  10.418	 1.573E+01	 1.249E+00	 3.277E+00	 3.296E+00	 4.395E+02	 2.639E+00	 1.055E+00	-5.107E+00	-5.087E+00	 4.607E+00	 3.663E+01	 1.615E-01	 3.818E-01	 2.376E+00	 2.028E-01	 5.750E-02	 1.507E-01	 2.140E-02	-1.070E-01	-5.194E+00
  10.430	 1.551E+01	 1.445E+00	 3.447E+00	 3.058E+00	 4.395E+02	 2.651E+00	 1.183E+00	 1.604E+01	-5.097E+00	 4.482E+00	 3.662E+01	 1.906E-01	 3.685E-01	 2.382E+00	 2.028E-01	 5.337E-02	 1.571E-01	 2.200E-02	-1.032E-01	-5.125E+00
  10.441	 1.529E+01	 2.434E+00	 3.509E+00	 2.789E+00	 4.395E+02	 2.665E+00	 1.114E+00	-3.305E+01	-5.109E+00	 4.355E+00	 3.663E+01	 1.672E-01	 3.349E-01	 2.372E+00	 2.026E-01	 5.628E-02	 1.640E-01	 2.263E-02	-9.913E-02	-5.092E+00
  10.453	 1.510E+01	 3.056E+00	 3.447E+00	 2.075E+00	 4.395E+02	 2.675E+00	 5.381E-01	-5.345E+01	-5.118E+00	 4.262E+00	 3.664E+01	 1.106E-01	 2.687E-01	 2.327E+00	 2.024E-01	 6.055E-02	 1.703E-01	 2.321E-02	-9.622E-02	-5.153E+00
  10.465	 1.502E+01	 3.296E+00	 3.278E+00	 1.201E+00	 4.394E+02	 2.678E+00	-4.512E-03	-3.434E+01	-5.121E+00	 4.304E+00	 3.667E+01	 1.393E-02	 2.001E-01	 2.277E+00	 2.023E-01	 6.312E-02	 1.732E-01	 2.347E-02	-9.547E-02	-5.179E+00
  10.476	 1.493E+01	 3.457E+00	 3.036E+00	 1.526E+00	 4.394E+02	 2.677E+00	-1.368E-01	 7.514E+00	-5.121E+00	 4.342E+00	 3.669E+01	-1.168E-01	 1.703E-01	 2.334E+00	 2.025E-01	 5.243E-02	 1.761E-01	 2.373E-02	-9.588E-02	-5.132E+00
  10.488	 1.484E+01	 3.509E+00	 2.755E+00	 2.509E+00	 4.394E+02	 2.676E+00	-7.678E-02	-4.696E+00	-5.121E+00	 4.382E+00	 3.669E+01	-2.283E-01	 1.490E-01	 2.350E+00	 2.023E-01	 5.034E-02	 1.791E-01	 2.400E-02	-9.618E-02	-5.099E+00
  10.499	 1.476E+01	 3.442E+00	 2.038E+00	 3.067E+00	 4.393E+02	 2.674E+00	-2.455E-01	-2.419E+01	-5.120E+00	 4.422E+00	 3.670E+01	-2.647E-01	 1.413E-01	 2.268E+00	 2.023E-01	 5.685E-02	 1.822E-01	 2.428E-02	-9.670E-02	-5.115E+00
  10.511	 1.462E+01	 3.260E+00	 1.166E+00	 3.312E+00	 4.393E+02	 2.669E+00	-6.238E-01	-3.207E+01	-5.117E+00	 4.346E+00	 3.670E+01	-2.171E-01	 1.749E-01	 2.232E+00	 2.023E-01	 6.491E-02	 1.874E-01	 2.474E-02	-9.829E-02	-5.153E+00
  10.523	 1.448E+01	 3.014E+00	 1.609E+00	 3.466E+00	 4.392E+02	 2.661E+00	-7.841E-01	 7.631E+00	-5.111E+00	 4.259E+00	 3.667E+01	-1.267E-01	 2.419E-01	 2.328E+00	 2.024E-01	 5.358E-02	 1.928E-01	 2.521E-02	-1.008E-01	-5.158E+00
  10.534	 1.435E+01	 2.718E+00	 2.580E+00	 3.508E+00	 4.392E+02	 2.653E+00	-5.005E-01	 3.642E+01	-5.106E+00	 4.171E+00	 3.662E+01	-9.871E-03	 2.854E-01	 2.297E+00	 2.022E-01	 4.517E-02	 1.984E-01	 2.571E-02	-1.031E-01	-5.124E+00
  10.546	 1.420E+01	 1.918E+00	 3.099E+00	 3.427E+00	 4.391E+02	 2.650E+00	-6.915E-02	 2.578E+01	-5.104E+00	 4.081E+00	 3.658E+01	 1.144E-01	 3.231E-01	 2.174E+00	 2.024E-01	 5.404E-02	 2.045E-01	 2.623E-02	-1.040E-01	-5.098E+00
  10.558	 1.416E+01	 1.142E+00	 3.328E+00	 3.244E+00	 4.390E+02	 2.650E+00	 8.799E-02	 9.971E+00	-5.105E+00	 4.138E+00	 3.654E+01	 1.703E-01	 3.490E-01	 2.203E+00	 2.024E-01	 6.229E-02	 2.065E-01	 2.642E-02	-1.039E-01	-5.134E+00
  10.569	 1.416E+01	 1.693E+00	 3.473E+00	 2.994E+00	 4.390E+02	 2.652E+00	 3.323E-01	 3.050E+01	-5.107E+00	 4.272E+00	 3.655E+01	 1.617E-01	 3.285E-01	 2.315E+00	 2.027E-01	 5.507E-02	 2.065E-01	 2.642E-02	-1.032E-01	-5.144E+00
  10.581	 1.416E+01	 2.645E+00	 3.506E+00	 2.677E+00	 4.389E+02	 2.658E+00	 6.857E-01	 2.939E+01	-5.112E+00	 4.409E+00	 3.656E+01	 1.294E-01	 2.858E-01	 2.273E+00	 2.026E-01	 4.891E-02	 2.064E-01	 2.642E-02	-1.014E-01	-5.150E+00
  10.593	 1.417E+01	 3.119E+00	 3.416E+00	 1.838E+00	 4.388E+02	 2.668E+00	 1.077E+00	 3.541E+01	-5.121E+00	 4.555E+00	 3.657E+01	 7.009E-02	 2.364E-01	 2.207E+00	 2.029E-01	 4.874E-02	 2.064E-01	 2.643E-02	-9.819E-02	-5.154E+00
  10.604	 1.417E+01	 3.343E+00	 3.226E+00	 1.124E+00	 4.387E+02	 2.683E+00	 1.550E+00	 4.962E+01	-5.134E+00	 4.785E+00	 3.659E+01	-1.935E-02	 1.929E-01	 2.237E+00	 2.029E-01	 5.114E-02	 2.065E-01	 2.645E-02	-9.367E-02	-5.131E+00
  10.616	 1.416E+01	 3.480E+00	 2.974E+00	 1.772E+00	 4.387E+02	 2.705E+00	 2.135E+00	 4.181E+01	-5.154E+00	 5.181E+00	 3.660E+01	-1.134E-01	 1.689E-01	 2.271E+00	 2.032E-01	 5.310E-02	 2.069E-01	 2.648E-02	-8.726E-02	-5.088E+00
  10.627	 1.415E+01	 3.504E+00	 2.633E+00	 2.703E+00	 4.386E+02	 2.731E+00	 2.378E+00	 3.099E+00	-5.178E+00	 5.582E+00	 3.658E+01	-1.891E-01	 1.621E-01	 2.247E+00	 2.032E-01	 5.365E-02	 2.072E-01	 2.652E-02	-7.938E-02	-5.128E+00
  10.639	 1.415E+01	 3.404E+00	 1.761E+00	 3.140E+00	 4.385E+02	 2.759E+00	 2.338E+00	-4.007E+00	-5.205E+00	 6.003E+00	 3.656E+01	-2.221E-01	 1.653E-01	 2.212E+00	 2.032E-01	 5.201E-02	 2.076E-01	 2.656E-02	-7.097E-02	-5.169E+00
  10.651	 1.414E+01	 3.208E+00	 1.121E+00	 3.358E+00	 4.384E+02	 2.787E+00	 2.442E+00	 2.692E+01	-5.232E+00	 6.391E+00	 3.654E+01	-1.954E-01	 1.974E-01	 2.180E+00	 2.035E-01	 4.762E-02	 2.080E-01	 2.661E-02	-6.290E-02	-5.126E+00
  10.662	 1.408E+01	 2.954E+00	 1.851E+00	 3.487E+00	 4.384E+02	 2.817E+00	 2.875E+00	 3.440E+01	-5.264E+00	 6.414E+00	 3.652E+01	-1.160E-01	 2.584E-01	 2.183E+00	 2.035E-01	 5.080E-02	 2.108E-01	 2.686E-02	-5.378E-02	-5.053E+00
  10.674	 1.402E+01	 2.588E+00	 2.757E+00	 3.501E+00	 4.383E+02	 2.851E+00	 3.001E+00	-1.353E+01	-5.301E+00	 6.442E+00	 3.647E+01	-1.301E-02	 3.040E-01	 2.207E+00	 2.037E-01	 5.735E-02	 2.136E-01	 2.711E-02	-4.357E-02	-5.074E+00
  10.686	 1.396E+01	 1.691E+00	 3.158E+00	 3.392E+00	 4.382E+02	 2.886E+00	 2.631E+00	-4.226E+01	-5.341E+00	 6.473E+00	 3.642E+01	 7.693E-02	 3.227E-01	 2.175E+00	 2.038E-01	 5.992E-02	 2.167E-01	 2.738E-02	-3.351E-02	-5.108E+00
  10.697	 1.390E+01	 1.135E+00	 3.371E+00	 3.189E+00	 4.381E+02	 2.913E+00	 2.178E+00	-3.025E+01	-5.377E+00	 6.500E+00	 3.640E+01	 1.400E-01	 3.157E-01	 2.157E+00	 2.042E-01	 5.739E-02	 2.196E-01	 2.764E-02	-2.542E-02	-5.112E+00
  10.709	 1.387E+01	 1.930E+00	 3.492E+00	 2.934E+00	 4.380E+02	 2.937E+00	 1.948E+00	-1.667E+01	-5.412E+00	 6.062E+00	 3.640E+01	 1.612E-01	 2.935E-01	 2.218E+00	 2.041E-01	 5.587E-02	 2.212E-01	 2.778E-02	-1.847E-02	-5.082E+00
  10.720	 1.385E+01	 2.806E+00	 3.497E+00	 2.540E+00	 4.379E+02	 2.958E+00	 1.684E+00	-3.115E+01	-5.447E+00	 5.460E+00	 3.639E+01	 1.331E-01	 2.472E-01	 2.230E+00	 2.043E-01	 5.971E-02	 2.223E-01	 2.788E-02	-1.227E-02	-5.064E+00
  10.732	 1.383E+01	 3.176E+00	 3.380E+00	 1.624E+00	 4.378E+02	 2.975E+00	 1.159E+00	-5.650E+01	-5.483E+00	 4.829E+00	 3.641E+01	 4.672E-02	 1.740E-01	 2.146E+00	 2.046E-01	 6.822E-02	 2.235E-01	 2.799E-02	-7.209E-03	-5.058E+00
  10.744	 1.381E+01	 3.383E+00	 3.172E+00	 1.160E+00	 4.377E+02	 2.984E+00	 4.741E-01	-5.726E+01	-5.514E+00	 4.219E+00	 3.644E+01	-5.310E-02	 1.360E-01	 2.162E+00	 2.048E-01	 6.950E-02	 2.246E-01	 2.810E-02	-4.539E-03	-5.100E+00
  10.755	 1.379E+01	 3.495E+00	 2.915E+00	 2.005E+00	 4.377E+02	 2.986E+00	-1.642E-01	-5.834E+01	-5.542E+00	 3.963E+00	 3.645E+01	-1.397E-01	 1.294E-01	 2.232E+00	 2.049E-01	 6.675E-02	 2.256E-01	 2.819E-02	-4.119E-03	-5.102E+00
  10.767	 1.378E+01	 3.492E+00	 2.492E+00	 2.849E+00	 4.375E+02	 2.980E+00	-8.644E-01	-6.019E+01	-5.566E+00	 4.169E+00	 3.645E+01	-2.020E-01	 1.377E-01	 2.194E+00	 2.050E-01	 6.593E-02	 2.263E-01	 2.827E-02	-5.987E-03	-5.085E+00
  10.779	 1.377E+01	 3.368E+00	 1.560E+00	 3.192E+00	 4.375E+02	 2.966E+00	-1.523E+00	-4.691E+01	-5.587E+00	 4.380E+00	 3.643E+01	-2.098E-01	 1.853E-01	 2.139E+00	 2.055E-01	 6.968E-02	 2.271E-01	 2.835E-02	-1.040E-02	-5.088E+00
  10.790	 1.377E+01	 3.155E+00	 1.189E+00	 3.393E+00	 4.374E+02	 2.946E+00	-1.867E+00	-1.054E+01	-5.605E+00	 4.580E+00	 3.639E+01	-1.584E-01	 2.605E-01	 2.229E+00	 2.056E-01	 6.563E-02	 2.279E-01	 2.843E-02	-1.636E-02	-5.121E+00
  10.802	 1.378E+01	 2.898E+00	 2.074E+00	 3.498E+00	 4.373E+02	 2.924E+00	-1.898E+00	-4.368E+00	-5.624E+00	 4.742E+00	 3.633E+01	-5.226E-02	 3.151E-01	 2.288E+00	 2.057E-01	 6.212E-02	 2.279E-01	 2.844E-02	-2.281E-02	-5.098E+00
  10.813	 1.389E+01	 2.444E+00	 2.887E+00	 3.487E+00	 4.372E+02	 2.902E+00	-2.062E+00	-2.167E+01	-5.644E+00	 4.646E+00	 3.626E+01	 6.013E-02	 3.439E-01	 2.238E+00	 2.060E-01	 6.470E-02	 2.224E-01	 2.799E-02	-2.954E-02	-5.103E+00
  10.825	 1.400E+01	 1.500E+00	 3.207E+00	 3.356E+00	 4.372E+02	 2.875E+00	-2.262E+00	-3.057E+00	-5.665E+00	 4.546E+00	 3.620E+01	 1.241E-01	 3.509E-01	 2.217E+00	 2.062E-01	 6.867E-02	 2.169E-01	 2.754E-02	-3.733E-02	-5.138E+00
  10.837	 1.412E+01	 1.222E+00	 3.403E+00	 3.139E+00	 4.371E+02	 2.850E+00	-2.058E+00	 3.420E+01	-5.687E+00	 4.455E+00	 3.619E+01	 1.327E-01	 3.154E-01	 2.255E+00	 2.064E-01	 6.590E-02	 2.118E-01	 2.711E-02	-4.480E-02	-5.106E+00
  10.848	 1.423E+01	 2.139E+00	 3.500E+00	 2.882E+00	 4.370E+02	 2.829E+00	-1.726E+00	 1.389E+01	-5.714E+00	 4.371E+00	 3.622E+01	 1.188E-01	 2.589E-01	 2.231E+00	 2.065E-01	 6.870E-02	 2.068E-01	 2.670E-02	-5.112E-02	-5.076E+00
  10.860	 1.423E+01	 2.942E+00	 3.478E+00	 2.361E+00	 4.370E+02	 2.808E+00	-1.720E+00	-4.318E+00	-5.745E+00	 4.702E+00	 3.626E+01	 9.070E-02	 2.047E-01	 2.194E+00	 2.066E-01	 7.247E-02	 2.066E-01	 2.669E-02	-5.719E-02	-5.132E+00
  10.872	 1.422E+01	 3.223E+00	 3.344E+00	 1.446E+00	 4.369E+02	 2.788E+00	-1.709E+00	 7.516E+00	-5.776E+00	 5.101E+00	 3.629E+01	 2.296E-02	 1.537E-01	 2.169E+00	 2.068E-01	 7.585E-02	 2.074E-01	 2.677E-02	-6.307E-02	-5.143E+00
  10.883	 1.420E+01	 3.413E+00	 3.123E+00	 1.260E+00	 4.368E+02	 2.770E+00	-1.510E+00	 2.880E+01	-5.810E+00	 5.503E+00	 3.631E+01	-8.395E-02	 1.344E-01	 2.187E+00	 2.071E-01	 6.946E-02	 2.082E-01	 2.685E-02	-6.860E-02	-5.103E+00
  10.895	 1.418E+01	 3.503E+00	 2.865E+00	 2.200E+00	 4.367E+02	 2.755E+00	-1.069E+00	 4.439E+01	-5.849E+00	 5.911E+00	 3.632E+01	-1.720E-01	 1.394E-01	 2.210E+00	 2.072E-01	 7.050E-02	 2.090E-01	 2.692E-02	-7.298E-02	-5.100E+00
  10.906	 1.413E+01	 3.476E+00	 2.346E+00	 2.950E+00	 4.367E+02	 2.745E+00	-5.986E-01	 3.069E+01	-5.894E+00	 6.304E+00	 3.631E+01	-2.002E-01	 1.639E-01	 2.246E+00	 2.074E-01	 7.712E-02	 2.114E-01	 2.714E-02	-7.569E-02	-5.110E+00
  10.918	 1.404E+01	 3.331E+00	 1.395E+00	 3.236E+00	 4.366E+02	 2.739E+00	-4.868E-01	-9.653E+00	-5.945E+00	 6.703E+00	 3.629E+01	-1.721E-01	 2.071E-01	 2.247E+00	 2.077E-01	 8.197E-02	 2.156E-01	 2.751E-02	-7.745E-02	-5.116E+00
  10.930	 1.396E+01	 3.106E+00	 1.303E+00	 3.421E+00	 4.366E+02	 2.733E+00	-5.741E-01	 5.403E+00	-5.996E+00	 7.090E+00	 3.624E+01	-1.336E-01	 2.764E-01	 2.288E+00	 2.080E-01	 7.556E-02	 2.198E-01	 2.787E-02	-7.933E-02	-5.154E+00
  10.941	 1.388E+01	 2.848E+00	 2.259E+00	 3.504E+00	 4.366E+02	 2.728E+00	-2.731E-01	 4.449E+01	-6.049E+00	 7.484E+00	 3.620E+01	-8.565E-02	 3.417E-01	 2.340E+00	 2.080E-01	 7.342E-02	 2.240E-01	 2.823E-02	-8.085E-02	-5.169E+00
  10.953	 1.385E+01	 2.257E+00	 2.993E+00	 3.467E+00	 4.366E+02	 2.728E+00	 3.249E-01	 4.437E+01	-6.111E+00	 7.781E+00	 3.618E+01	 1.721E-02	 3.850E-01	 2.377E+00	 2.082E-01	 7.419E-02	 2.255E-01	 2.836E-02	-8.066E-02	-5.111E+00
  10.965	 1.400E+01	 1.346E+00	 3.249E+00	 3.319E+00	 4.366E+02	 2.734E+00	 5.500E-01	-6.874E+00	-6.176E+00	 7.718E+00	 3.615E+01	 1.291E-01	 3.973E-01	 2.320E+00	 2.083E-01	 8.356E-02	 2.184E-01	 2.777E-02	-7.895E-02	-5.100E+00
  10.976	 1.415E+01	 1.350E+00	 3.429E+00	 3.090E+00	 4.366E+02	 2.739E+00	 3.517E-01	-1.660E+01	-6.242E+00	 7.659E+00	 3.613E+01	 1.885E-01	 3.693E-01	 2.340E+00	 2.086E-01	 8.408E-02	 2.116E-01	 2.720E-02	-7.742E-02	-5.156E+00
  10.988	 1.430E+01	 2.318E+00	 3.505E+00	 2.831E+00	 4.366E+02	 2.742E+00	 2.578E-01	-2.114E+00	-6.308E+00	 7.602E+00	 3.614E+01	 1.750E-01	 3.132E-01	 2.386E+00	 2.084E-01	 8.336E-02	 2.050E-01	 2.663E-02	-7.645E-02	-5.170E+00
  11.000	 1.446E+01	 3.016E+00	 3.461E+00	 2.204E+00	 4.366E+02	 2.745E+00	 2.213E-01	-5.661E+00	-6.378E+00	 7.546E+00	 3.615E+01	 1.031E-01	 2.296E-01	 2.352E+00	 2.084E-01	 8.150E-02	 1.985E-01	 2.607E-02	-7.558E-02	-5.115E+00
  11.011	 1.450E+01	 3.263E+00	 3.306E+00	 1.302E+00	 4.365E+02	 2.747E+00	 1.049E-01	-1.445E+01	-6.445E+00	 7.178E+00	 3.619E+01	 6.043E-03	 1.360E-01	 2.283E+00	 2.086E-01	 8.787E-02	 1.969E-01	 2.593E-02	-7.502E-02	-5.098E+00
  11.023	 1.453E+01	 3.437E+00	 3.074E+00	 1.401E+00	 4.366E+02	 2.747E+00	-8.583E-02	-1.791E+01	-6.512E+00	 6.798E+00	 3.624E+01	-1.027E-01	 9.007E-02	 2.370E+00	 2.087E-01	 9.012E-02	 1.956E-01	 2.582E-02	-7.501E-02	-5.137E+00
  11.034	 1.457E+01	 3.506E+00	 2.813E+00	 2.375E+00	 4.365E+02	 2.745E+00	-3.469E-01	-2.870E+01	-6.578E+00	 6.418E+00	 3.629E+01	-1.897E-01	 8.658E-02	 2.390E+00	 2.086E-01	 8.990E-02	 1.943E-01	 2.571E-02	-7.576E-02	-5.153E+00
  11.046	 1.460E+01	 3.454E+00	 2.150E+00	 3.036E+00	 4.365E+02	 2.739E+00	-6.712E-01	-1.876E+01	-6.645E+00	 6.023E+00	 3.632E+01	-2.378E-01	 1.260E-01	 2.295E+00	 2.085E-01	 8.708E-02	 1.929E-01	 2.559E-02	-7.766E-02	-5.144E+00
  11.058	 1.459E+01	 3.294E+00	 1.263E+00	 3.276E+00	 4.365E+02	 2.730E+00	-7.417E-01	 6.436E+00	-6.708E+00	 6.095E+00	 3.632E+01	-2.259E-01	 2.041E-01	 2.273E+00	 2.087E-01	 8.708E-02	 1.934E-01	 2.563E-02	-8.017E-02	-5.132E+00
  11.069	 1.456E+01	 3.059E+00	 1.451E+00	 3.444E+00	 4.365E+02	 2.723E+00	-5.585E-01	 1.958E+01	-6.772E+00	 6.409E+00	 3.628E+01	-1.526E-01	 3.072E-01	 2.371E+00	 2.087E-01	 8.585E-02	 1.947E-01	 2.575E-02	-8.240E-02	-5.126E+00
  11.081	 1.452E+01	 2.794E+00	 2.428E+00	 3.506E+00	 4.365E+02	 2.717E+00	-4.757E-01	-7.163E+00	-6.839E+00	 6.728E+00	 3.621E+01	-3.520E-02	 3.786E-01	 2.350E+00	 2.087E-01	 8.867E-02	 1.961E-01	 2.587E-02	-8.406E-02	-5.132E+00
  11.093	 1.448E+01	 2.098E+00	 3.052E+00	 3.447E+00	 4.365E+02	 2.711E+00	-5.419E-01	 7.441E+00	-6.908E+00	 7.061E+00	 3.614E+01	 6.944E-02	 4.059E-01	 2.310E+00	 2.087E-01	 8.541E-02	 1.976E-01	 2.600E-02	-8.594E-02	-5.168E+00
  11.104	 1.449E+01	 1.227E+00	 3.288E+00	 3.282E+00	 4.365E+02	 2.706E+00	-2.669E-01	 3.512E+01	-6.975E+00	 7.564E+00	 3.611E+01	 1.317E-01	 3.999E-01	 2.328E+00	 2.088E-01	 8.356E-02	 1.973E-01	 2.597E-02	-8.736E-02	-5.153E+00
  11.116	 1.458E+01	 1.503E+00	 3.451E+00	 3.044E+00	 4.365E+02	 2.705E+00	 1.439E-01	 3.147E+01	-7.047E+00	 8.407E+00	 3.611E+01	 1.632E-01	 3.603E-01	 2.370E+00	 2.090E-01	 8.247E-02	 1.937E-01	 2.567E-02	-8.749E-02	-5.136E+00
  11.127	 1.467E+01	 2.478E+00	 3.506E+00	 2.772E+00	 4.365E+02	 2.708E+00	 4.234E-01	 2.156E+01	-7.122E+00	 9.243E+00	 3.613E+01	 1.517E-01	 2.904E-01	 2.363E+00	 2.089E-01	 8.226E-02	 1.903E-01	 2.536E-02	-8.643E-02	-5.154E+00
  11.139	 1.477E+01	 3.066E+00	 3.441E+00	 2.043E+00	 4.365E+02	 2.716E+00	 8.163E-01	 4.539E+01	-7.203E+00	 1.011E+01	 3.617E+01	 9.730E-02	 2.092E-01	 2.380E+00	 2.090E-01	 8.124E-02	 1.868E-01	 2.505E-02	-8.425E-02	-5.159E+00
  11.151	 1.487E+01	 3.300E+00	 3.270E+00	 1.196E+00	 4.365E+02	 2.728E+00	 1.299E+00	 3.109E+01	-7.287E+00	 1.091E+01	 3.621E+01	 9.897E-03	 1.419E-01	 2.357E+00	 2.090E-01	 8.444E-02	 1.837E-01	 2.477E-02	-8.051E-02	-5.124E+00
  11.162	 1.486E+01	 3.457E+00	 3.029E+00	 1.558E+00	 4.365E+02	 2.744E+00	 1.524E+00	 1.082E+01	-7.374E+00	 1.117E+01	 3.626E+01	-8.484E-02	 1.110E-01	 2.362E+00	 2.090E-01	 8.463E-02	 1.845E-01	 2.484E-02	-7.559E-02	-5.144E+00
  11.174	 1.484E+01	 3.506E+00	 2.748E+00	 2.528E+00	 4.365E+02	 2.762E+00	 1.617E+00	 1.038E+01	-7.464E+00	 1.144E+01	 3.630E+01	-1.640E-01	 1.178E-01	 2.367E+00	 2.089E-01	 8.354E-02	 1.853E-01	 2.491E-02	-7.021E-02	-5.171E+00
  11.186	 1.482E+01	 3.434E+00	 1.988E+00	 3.081E+00	 4.365E+02	 2.783E+00	 1.874E+00	 3.232E+01	-7.559E+00	 1.172E+01	 3.631E+01	-2.090E-01	 1.694E-01	 2.355E+00	 2.090E-01	 8.183E-02	 1.860E-01	 2.498E-02	-6.403E-02	-5.143E+00
  11.197	 1.480E+01	 3.258E+00	 1.171E+00	 3.312E+00	 4.365E+02	 2.807E+00	 2.229E+00	 2.400E+01	-7.655E+00	 1.199E+01	 3.629E+01	-2.050E-01	 2.438E-01	 2.327E+00	 2.088E-01	 8.480E-02	 1.868E-01	 2.505E-02	-5.694E-02	-5.100E+00
  11.209	 1.482E+01	 3.014E+00	 1.615E+00	 3.463E+00	 4.365E+02	 2.833E+00	 2.350E+00	-6.214E+00	-7.754E+00	 1.209E+01	 3.625E+01	-1.564E-01	 3.218E-01	 2.352E+00	 2.091E-01	 8.828E-02	 1.860E-01	 2.498E-02	-4.901E-02	-5.114E+00
  11.220	 1.485E+01	 2.721E+00	 2.578E+00	 3.505E+00	 4.365E+02	 2.859E+00	 2.068E+00	-3.777E+01	-7.854E+00	 1.212E+01	 3.621E+01	-7.469E-02	 3.847E-01	 2.388E+00	 2.089E-01	 8.931E-02	 1.848E-01	 2.487E-02	-4.141E-02	-5.147E+00
  11.232	 1.489E+01	 1.931E+00	 3.097E+00	 3.425E+00	 4.365E+02	 2.881E+00	 1.661E+00	-2.311E+01	-7.957E+00	 1.216E+01	 3.617E+01	 2.991E-02	 4.205E-01	 2.414E+00	 2.090E-01	 8.661E-02	 1.834E-01	 2.475E-02	-3.490E-02	-5.153E+00
  11.244	 1.492E+01	 1.150E+00	 3.323E+00	 3.243E+00	 4.365E+02	 2.899E+00	 1.476E+00	-1.320E+01	-8.054E+00	 1.220E+01	 3.615E+01	 1.250E-01	 4.073E-01	 2.405E+00	 2.090E-01	 8.725E-02	 1.822E-01	 2.463E-02	-2.962E-02	-5.113E+00
  11.255	 1.495E+01	 1.674E+00	 3.468E+00	 2.997E+00	 4.366E+02	 2.915E+00	 1.247E+00	-3.292E+01	-8.151E+00	 1.227E+01	 3.614E+01	 1.841E-01	 3.613E-01	 2.434E+00	 2.092E-01	 8.945E-02	 1.811E-01	 2.454E-02	-2.495E-02	-5.113E+00
  11.267	 1.497E+01	 2.625E+00	 3.503E+00	 2.691E+00	 4.366E+02	 2.927E+00	 6.531E-01	-6.590E+01	-8.246E+00	 1.240E+01	 3.616E+01	 1.738E-01	 2.988E-01	 2.472E+00	 2.090E-01	 8.975E-02	 1.805E-01	 2.447E-02	-2.169E-02	-5.143E+00
  11.279	 1.499E+01	 3.112E+00	 3.415E+00	 1.873E+00	 4.367E+02	 2.930E+00	-8.761E-02	-5.086E+01	-8.340E+00	 1.252E+01	 3.620E+01	 1.038E-01	 2.118E-01	 2.508E+00	 2.091E-01	 8.780E-02	 1.798E-01	 2.440E-02	-2.088E-02	-5.163E+00
  11.290	 1.500E+01	 3.335E+00	 3.228E+00	 1.138E+00	 4.368E+02	 2.926E+00	-5.862E-01	-3.778E+01	-8.426E+00	 1.264E+01	 3.625E+01	-1.079E-02	 1.331E-01	 2.509E+00	 2.090E-01	 8.823E-02	 1.791E-01	 2.434E-02	-2.216E-02	-5.148E+00
  11.302	 1.504E+01	 3.474E+00	 2.980E+00	 1.735E+00	 4.369E+02	 2.916E+00	-1.010E+00	-3.937E+01	-8.508E+00	 1.272E+01	 3.631E+01	-1.277E-01	 9.852E-02	 2.515E+00	 2.091E-01	 8.807E-02	 1.779E-01	 2.422E-02	-2.495E-02	-5.148E+00
  11.313	 1.515E+01	 3.501E+00	 2.657E+00	 2.672E+00	 4.370E+02	 2.902E+00	-1.534E+00	-4.900E+01	-8.587E+00	 1.257E+01	 3.638E+01	-2.179E-01	 1.145E-01	 2.550E+00	 2.089E-01	 8.514E-02	 1.738E-01	 2.384E-02	-2.935E-02	-5.156E+00
  11.325	 1.527E+01	 3.406E+00	 1.812E+00	 3.127E+00	 4.371E+02	 2.880E+00	-2.044E+00	-3.257E+01	-8.665E+00	 1.241E+01	 3.642E+01	-2.561E-01	 1.772E-01	 2.588E+00	 2.089E-01	 8.335E-02	 1.696E-01	 2.345E-02	-3.587E-02	-5.183E+00
  11.337	 1.538E+01	 3.214E+00	 1.130E+00	 3.347E+00	 4.372E+02	 2.855E+00	-2.294E+00	-9.230E+00	-8.736E+00	 1.226E+01	 3.641E+01	-2.262E-01	 2.648E-01	 2.569E+00	 2.087E-01	 8.236E-02	 1.657E-01	 2.308E-02	-4.340E-02	-5.183E+00
  11.348	 1.549E+01	 2.963E+00	 1.800E+00	 3.479E+00	 4.373E+02	 2.828E+00	-2.320E+00	-4.272E+00	-8.806E+00	 1.211E+01	 3.638E+01	-1.354E-01	 3.531E-01	 2.554E+00	 2.086E-01	 8.278E-02	 1.618E-01	 2.271E-02	-5.129E-02	-5.160E+00
  11.360	 1.557E+01	 2.593E+00	 2.749E+00	 3.497E+00	 4.374E+02	 2.800E+00	-2.500E+00	-1.752E+01	-8.878E+00	 1.211E+01	 3.634E+01	-1.100E-02	 4.187E-01	 2.577E+00	 2.084E-01	 7.974E-02	 1.594E-01	 2.247E-02	-5.985E-02	-5.176E+00
  11.372	 1.563E+01	 1.747E+00	 3.143E+00	 3.396E+00	 4.375E+02	 2.771E+00	-2.480E+00	 2.398E+01	-8.946E+00	 1.215E+01	 3.631E+01	 9.071E-02	 4.466E-01	 2.587E+00	 2.083E-01	 7.745E-02	 1.574E-01	 2.227E-02	-6.849E-02	-5.195E+00
  11.383	 1.569E+01	 1.131E+00	 3.358E+00	 3.199E+00	 4.376E+02	 2.744E+00	-2.100E+00	 3.425E+01	-9.015E+00	 1.218E+01	 3.629E+01	 1.530E-01	 4.277E-01	 2.572E+00	 2.080E-01	 8.008E-02	 1.554E-01	 2.207E-02	-7.627E-02	-5.172E+00
  11.395	 1.576E+01	 1.870E+00	 3.484E+00	 2.946E+00	 4.377E+02	 2.722E+00	-1.754E+00	 2.497E+01	-9.087E+00	 1.222E+01	 3.630E+01	 1.687E-01	 3.698E-01	 2.556E+00	 2.078E-01	 8.038E-02	 1.534E-01	 2.187E-02	-8.275E-02	-5.168E+00
  11.406	 1.579E+01	 2.767E+00	 3.496E+00	 2.577E+00	 4.378E+02	 2.703E+00	-1.486E+00	 2.676E+01	-9.161E+00	 1.233E+01	 3.635E+01	 1.368E-01	 2.913E-01	 2.544E+00	 2.076E-01	 7.930E-02	 1.522E-01	 2.175E-02	-8.824E-02	-5.181E+00
  11.418	 1.581E+01	 3.161E+00	 3.386E+00	 1.679E+00	 4.379E+02	 2.688E+00	-1.004E+00	 5.206E+01	-9.240E+00	 1.251E+01	 3.641E+01	 6.356E-02	 2.054E-01	 2.572E+00	 2.075E-01	 7.967E-02	 1.518E-01	 2.170E-02	-9.268E-02	-5.187E+00
  11.430	 1.582E+01	 3.371E+00	 3.182E+00	 1.142E+00	 4.380E+02	 2.680E+00	-3.935E-01	 5.248E+01	-9.320E+00	 1.268E+01	 3.648E+01	-3.635E-02	 1.495E-01	 2.615E+00	 2.073E-01	 7.962E-02	 1.513E-01	 2.164E-02	-9.496E-02	-5.186E+00
  11.441	 1.583E+01	 3.489E+00	 2.926E+00	 1.943E+00	 4.381E+02	 2.679E+00	 1.771E-01	 4.091E+01	-9.405E+00	 1.286E+01	 3.653E+01	-1.331E-01	 1.243E-01	 2.620E+00	 2.071E-01	 8.018E-02	 1.509E-01	 2.159E-02	-9.520E-02	-5.173E+00
  11.453	 1.587E+01	 3.489E+00	 2.497E+00	 2.840E+00	 4.383E+02	 2.683E+00	 4.849E-01	 1.699E+01	-9.496E+00	 1.317E+01	 3.659E+01	-2.198E-01	 1.370E-01	 2.639E+00	 2.070E-01	 8.111E-02	 1.498E-01	 2.147E-02	-9.387E-02	-5.195E+00
  11.465	 1.597E+01	 3.373E+00	 1.606E+00	 3.179E+00	 4.384E+02	 2.691E+00	 8.238E-01	 4.676E+01	-9.584E+00	 1.379E+01	 3.662E+01	-2.569E-01	 2.065E-01	 2.684E+00	 2.067E-01	 7.948E-02	 1.470E-01	 2.120E-02	-9.169E-02	-5.222E+00
  11.476	 1.608E+01	 3.163E+00	 1.163E+00	 3.383E+00	 4.385E+02	 2.704E+00	 1.475E+00	 5.838E+01	-9.676E+00	 1.441E+01	 3.663E+01	-2.198E-01	 2.931E-01	 2.652E+00	 2.065E-01	 8.047E-02	 1.443E-01	 2.092E-02	-8.769E-02	-5.183E+00
  11.488	 1.619E+01	 2.906E+00	 2.022E+00	 3.493E+00	 4.386E+02	 2.724E+00	 1.977E+00	 2.077E+01	-9.772E+00	 1.503E+01	 3.661E+01	-1.279E-01	 3.728E-01	 2.603E+00	 2.062E-01	 8.436E-02	 1.416E-01	 2.065E-02	-8.159E-02	-5.140E+00
  11.500	 1.630E+01	 2.441E+00	 2.885E+00	 3.484E+00	 4.388E+02	 2.748E+00	 1.965E+00	-1.247E+01	-9.874E+00	 1.567E+01	 3.657E+01	-1.594E-02	 4.499E-01	 2.640E+00	 2.059E-01	 8.661E-02	 1.389E-01	 2.037E-02	-7.445E-02	-5.187E+00
  11.511	 1.635E+01	 1.535E+00	 3.198E+00	 3.359E+00	 4.389E+02	 2.770E+00	 1.969E+00	 1.768E+01	-9.969E+00	 1.549E+01	 3.654E+01	 7.922E-02	 4.742E-01	 2.653E+00	 2.056E-01	 8.586E-02	 1.375E-01	 2.023E-02	-6.784E-02	-5.214E+00
  11.523	 1.638E+01	 1.201E+00	 3.396E+00	 3.143E+00	 4.390E+02	 2.795E+00	 2.284E+00	 3.012E+01	-1.006E+01	 1.528E+01	 3.653E+01	 1.555E-01	 4.312E-01	 2.603E+00	 2.054E-01	 8.510E-02	 1.363E-01	 2.009E-02	-6.057E-02	-5.162E+00
  11.534	 1.642E+01	 2.105E+00	 3.497E+00	 2.885E+00	 4.391E+02	 2.822E+00	 2.479E+00	-5.304E+00	-1.016E+01	 1.508E+01	 3.655E+01	 1.806E-01	 3.637E-01	 2.593E+00	 2.050E-01	 8.759E-02	 1.350E-01	 1.995E-02	-5.229E-02	-5.135E+00
  11.546	 1.646E+01	 2.928E+00	 3.478E+00	 2.379E+00	 4.392E+02	 2.851E+00	 2.161E+00	-3.456E+01	-1.026E+01	 1.487E+01	 3.659E+01	 1.397E-01	 2.838E-01	 2.666E+00	 2.048E-01	 8.698E-02	 1.337E-01	 1.982E-02	-4.397E-02	-5.195E+00
  11.558	 1.654E+01	 3.217E+00	 3.344E+00	 1.462E+00	 4.394E+02	 2.874E+00	 1.990E+00	 7.622E+00	-1.035E+01	 1.431E+01	 3.666E+01	 5.344E-02	 1.862E-01	 2.659E+00	 2.047E-01	 8.547E-02	 1.315E-01	 1.958E-02	-3.707E-02	-5.202E+00
  11.569	 1.664E+01	 3.408E+00	 3.122E+00	 1.248E+00	 4.395E+02	 2.898E+00	 2.202E+00	 2.122E+01	-1.044E+01	 1.357E+01	 3.673E+01	-6.350E-02	 1.264E-01	 2.641E+00	 2.045E-01	 8.469E-02	 1.287E-01	 1.929E-02	-2.992E-02	-5.151E+00
  11.581	 1.674E+01	 3.500E+00	 2.863E+00	 2.189E+00	 4.397E+02	 2.924E+00	 2.291E+00	-1.330E+01	-1.054E+01	 1.284E+01	 3.680E+01	-1.711E-01	 1.213E-01	 2.719E+00	 2.042E-01	 8.316E-02	 1.260E-01	 1.901E-02	-2.212E-02	-5.143E+00
  11.593	 1.685E+01	 3.470E+00	 2.309E+00	 2.968E+00	 4.398E+02	 2.950E+00	 1.906E+00	-4.066E+01	-1.063E+01	 1.209E+01	 3.688E+01	-2.437E-01	 1.529E-01	 2.740E+00	 2.038E-01	 8.444E-02	 1.233E-01	 1.872E-02	-1.462E-02	-5.198E+00
  11.604	 1.692E+01	 3.327E+00	 1.388E+00	 3.237E+00	 4.400E+02	 2.969E+00	 1.574E+00	-1.345E+01	-1.072E+01	 1.165E+01	 3.692E+01	-2.455E-01	 2.296E-01	 2.651E+00	 2.036E-01	 8.767E-02	 1.215E-01	 1.852E-02	-8.829E-03	-5.199E+00
  11.616	 1.694E+01	 3.100E+00	 1.309E+00	 3.421E+00	 4.401E+02	 2.987E+00	 1.576E+00	 1.091E+01	-1.080E+01	 1.170E+01	 3.690E+01	-1.873E-01	 3.400E-01	 2.677E+00	 2.033E-01	 8.309E-02	 1.209E-01	 1.845E-02	-3.537E-03	-5.152E+00
  11.627	 1.695E+01	 2.841E+00	 2.277E+00	 3.503E+00	 4.403E+02	 3.006E+00	 1.593E+00	-1.937E+01	-1.089E+01	 1.175E+01	 3.686E+01	-8.259E-02	 4.288E-01	 2.737E+00	 2.029E-01	 8.230E-02	 1.204E-01	 1.838E-02	 2.781E-04	-5.146E+00
  11.639	 1.697E+01	 2.232E+00	 3.004E+00	 3.461E+00	 4.404E+02	 3.022E+00	 1.107E+00	-4.626E+01	-1.097E+01	 1.180E+01	 3.680E+01	 3.700E-02	 4.637E-01	 2.672E+00	 2.025E-01	 8.311E-02	 1.198E-01	 1.831E-02	 1.932E-04	-5.205E+00
  11.651	 1.698E+01	 1.316E+00	 3.257E+00	 3.309E+00	 4.405E+02	 3.033E+00	 8.031E-01	-3.088E+00	-1.105E+01	 1.182E+01	 3.677E+01	 1.136E-01	 4.470E-01	 2.588E+00	 2.022E-01	 8.316E-02	 1.194E-01	 1.825E-02	 1.402E-04	-5.198E+00
  11.662	 1.691E+01	 1.383E+00	 3.434E+00	 3.077E+00	 4.407E+02	 3.043E+00	 9.416E-01	 2.041E+01	-1.113E+01	 1.130E+01	 3.678E+01	 1.491E-01	 3.887E-01	 2.624E+00	 2.019E-01	 8.001E-02	 1.207E-01	 1.837E-02	 1.643E-04	-5.145E+00
  11.674	 1.684E+01	 2.367E+00	 3.505E+00	 2.815E+00	 4.408E+02	 3.054E+00	 9.981E-01	-1.796E+01	-1.120E+01	 1.078E+01	 3.683E+01	 1.400E-01	 3.199E-01	 2.662E+00	 2.015E-01	 7.956E-02	 1.220E-01	 1.850E-02	 1.742E-04	-5.142E+00
  11.686	 1.678E+01	 3.036E+00	 3.452E+00	 2.146E+00	 4.409E+02	 3.064E+00	 6.048E-01	-3.237E+01	-1.128E+01	 1.022E+01	 3.691E+01	 1.027E-01	 2.453E-01	 2.621E+00	 2.012E-01	 7.772E-02	 1.235E-01	 1.863E-02	 1.056E-04	-5.210E+00
  11.697	 1.671E+01	 3.278E+00	 3.290E+00	 1.247E+00	 4.410E+02	 3.070E+00	 4.624E-01	 7.971E+00	-1.135E+01	 9.685E+00	 3.699E+01	 2.854E-02	 1.867E-01	 2.616E+00	 2.010E-01	 7.354E-02	 1.249E-01	 1.876E-02	 8.070E-05	-5.210E+00
  11.709	 1.672E+01	 3.446E+00	 3.052E+00	 1.466E+00	 4.412E+02	 3.076E+00	 6.918E-01	 2.730E+01	-1.142E+01	 9.279E+00	 3.704E+01	-8.123E-02	 1.670E-01	 2.697E+00	 2.008E-01	 6.806E-02	 1.246E-01	 1.872E-02	 1.207E-04	-5.170E+00
  11.720	 1.676E+01	 3.506E+00	 2.780E+00	 2.456E+00	 4.413E+02	 3.085E+00	 8.498E-01	-4.049E+00	-1.149E+01	 8.925E+00	 3.707E+01	-1.833E-01	 1.657E-01	 2.705E+00	 2.003E-01	 6.839E-02	 1.238E-01	 1.862E-02	 1.483E-04	-5.162E+00
  11.732	 1.681E+01	 3.441E+00	 2.050E+00	 3.062E+00	 4.414E+02	 3.095E+00	 7.152E-01	-6.846E+00	-1.156E+01	 8.557E+00	 3.711E+01	-2.368E-01	 1.964E-01	 2.645E+00	 2.001E-01	 6.791E-02	 1.229E-01	 1.852E-02	 1.248E-04	-5.202E+00
  11.744	 1.685E+01	 3.269E+00	 1.186E+00	 3.300E+00	 4.416E+02	 3.103E+00	 7.567E-01	 1.165E+01	-1.163E+01	 8.204E+00	 3.711E+01	-2.242E-01	 2.582E-01	 2.661E+00	 1.998E-01	 6.421E-02	 1.221E-01	 1.843E-02	 1.321E-04	-5.193E+00
  11.755	 1.686E+01	 3.025E+00	 1.562E+00	 3.459E+00	 4.417E+02	 3.113E+00	 9.154E-01	 1.278E+01	-1.170E+01	 8.139E+00	 3.709E+01	-1.732E-01	 3.241E-01	 2.699E+00	 1.995E-01	 6.142E-02	 1.218E-01	 1.838E-02	 1.598E-04	-5.175E+00
  11.767	 1.683E+01	 2.715E+00	 2.582E+00	 3.506E+00	 4.419E+02	 3.124E+00	 9.040E-01	-1.196E+01	-1.177E+01	 8.460E+00	 3.707E+01	-8.910E-02	 3.731E-01	 2.667E+00	 1.990E-01	 6.347E-02	 1.220E-01	 1.839E-02	 1.578E-04	-5.183E+00
  11.779	 1.680E+01	 1.947E+00	 3.089E+00	 3.429E+00	 4.420E+02	 3.134E+00	 8.739E-01	 1.675E+01	-1.184E+01	 8.767E+00	 3.707E+01	 4.994E-03	 3.878E-01	 2.629E+00	 1.987E-01	 5.900E-02	 1.223E-01	 1.840E-02	 1.525E-04	-5.182E+00
  11.790	 1.678E+01	 1.142E+00	 3.322E+00	 3.247E+00	 4.421E+02	 3.145E+00	 1.170E+00	 1.876E+01	-1.190E+01	 9.076E+00	 3.710E+01	 9.784E-02	 3.839E-01	 2.618E+00	 1.983E-01	 5.996E-02	 1.225E-01	 1.841E-02	 2.042E-04	-5.138E+00
  11.802	 1.676E+01	 1.671E+00	 3.470E+00	 2.997E+00	 4.423E+02	 3.159E+00	 1.112E+00	-2.671E+01	-1.197E+01	 9.388E+00	 3.712E+01	 1.669E-01	 3.720E-01	 2.635E+00	 1.981E-01	 6.347E-02	 1.226E-01	 1.841E-02	 1.941E-04	-5.174E+00
  11.813	 1.679E+01	 2.635E+00	 3.506E+00	 2.680E+00	 4.424E+02	 3.170E+00	 7.132E-01	-3.107E+01	-1.204E+01	 9.714E+00	 3.716E+01	 1.782E-01	 3.387E-01	 2.651E+00	 1.976E-01	 6.143E-02	 1.216E-01	 1.829E-02	 1.245E-04	-5.212E+00
  11.825	 1.682E+01	 3.118E+00	 3.415E+00	 1.835E+00	 4.425E+02	 3.177E+00	 6.005E-01	 1.433E+01	-1.210E+01	 1.005E+01	 3.720E+01	 1.233E-01	 2.809E-01	 2.628E+00	 1.975E-01	 5.321E-02	 1.206E-01	 1.818E-02	 1.048E-04	-5.173E+00
  11.837	 1.686E+01	 3.343E+00	 3.222E+00	 1.117E+00	 4.427E+02	 3.185E+00	 8.199E-01	 1.226E+01	-1.216E+01	 1.037E+01	 3.724E+01	 7.062E-03	 2.275E-01	 2.628E+00	 1.971E-01	 5.218E-02	 1.196E-01	 1.807E-02	 1.431E-04	-5.132E+00
  11.848	 1.689E+01	 3.480E+00	 2.966E+00	 1.786E+00	 4.428E+02	 3.195E+00	 7.646E-01	-2.313E+01	-1.222E+01	 1.069E+01	 3.728E+01	-1.072E-01	 1.922E-01	 2.714E+00	 1.970E-01	 5.633E-02	 1.187E-01	 1.796E-02	 1.334E-04	-5.180E+00
  11.860	 1.687E+01	 3.500E+00	 2.586E+00	 2.751E+00	 4.430E+02	 3.201E+00	 3.344E-01	-4.046E+01	-1.229E+01	 1.080E+01	 3.733E+01	-1.951E-01	 1.806E-01	 2.729E+00	 1.964E-01	 5.582E-02	 1.191E-01	 1.798E-02	 5.836E-05	-5.207E+00
  11.872	 1.683E+01	 3.397E+00	 1.718E+00	 3.148E+00	 4.431E+02	 3.203E+00	 1.844E-02	-1.039E+01	-1.234E+01	 1.085E+01	 3.736E+01	-2.382E-01	 2.051E-01	 2.671E+00	 1.964E-01	 4.809E-02	 1.197E-01	 1.803E-02	 3.218E-06	-5.180E+00
  11.883	 1.680E+01	 3.194E+00	 1.117E+00	 3.365E+00	 4.433E+02	 3.203E+00	 2.426E-02	 4.972E+00	-1.239E+01	 1.091E+01	 3.736E+01	-2.397E-01	 2.535E-01	 2.701E+00	 1.958E-01	 4.436E-02	 1.203E-01	 1.807E-02	 4.234E-06	-5.168E+00
  11.895	 1.676E+01	 2.934E+00	 1.909E+00	 3.490E+00	 4.435E+02	 3.204E+00	 4.993E-02	-7.201E+00	-1.245E+01	 1.097E+01	 3.736E+01	-1.841E-01	 3.067E-01	 2.727E+00	 1.956E-01	 4.825E-02	 1.209E-01	 1.812E-02	 8.714E-06	-5.164E+00
  11.906	 1.672E+01	 2.535E+00	 2.802E+00	 3.497E+00	 4.436E+02	 3.203E+00	-2.657E-01	-4.625E+01	-1.250E+01	 1.105E+01	 3.737E+01	-7.738E-02	 3.500E-01	 2.658E+00	 1.950E-01	 5.363E-02	 1.217E-01	 1.819E-02	-4.637E-05	-5.158E+00
  11.918	 1.666E+01	 1.600E+00	 3.178E+00	 3.377E+00	 4.438E+02	 3.196E+00	-8.164E-01	-3.428E+01	-1.255E+01	 1.117E+01	 3.738E+01	 4.743E-02	 3.706E-01	 2.630E+00	 1.948E-01	 4.800E-02	 1.228E-01	 1.828E-02	-1.425E-04	-5.174E+00
  11.930	 1.661E+01	 1.153E+00	 3.387E+00	 3.164E+00	 4.439E+02	 3.185E+00	-1.007E+00	-1.713E+00	-1.259E+01	 1.128E+01	 3.740E+01	 1.426E-01	 3.711E-01	 2.644E+00	 1.942E-01	 4.219E-02	 1.238E-01	 1.836E-02	-1.758E-04	-5.177E+00
  11.941	 1.655E+01	 2.039E+00	 3.498E+00	 2.902E+00	 4.440E+02	 3.174E+00	-9.933E-01	-6.812E+00	-1.264E+01	 1.138E+01	 3.742E+01	 1.785E-01	 3.505E-01	 2.586E+00	 1.938E-01	 4.664E-02	 1.249E-01	 1.845E-02	-1.734E-04	-5.137E+00
  11.953	 1.650E+01	 2.902E+00	 3.487E+00	 2.412E+00	 4.441E+02	 3.161E+00	-1.301E+00	-3.971E+01	-1.268E+01	 1.143E+01	 3.745E+01	 1.464E-01	 3.118E-01	 2.563E+00	 1.934E-01	 5.045E-02	 1.258E-01	 1.853E-02	-2.271E-04	-5.128E+00
  11.965	 1.647E+01	 3.209E+00	 3.355E+00	 1.482E+00	 4.442E+02	 3.143E+00	-1.689E+00	-2.004E+01	-1.272E+01	 1.131E+01	 3.750E+01	 7.138E-02	 2.732E-01	 2.603E+00	 1.932E-01	 4.520E-02	 1.262E-01	 1.856E-02	-2.947E-04	-5.165E+00
  11.976	 1.645E+01	 3.407E+00	 3.133E+00	 1.219E+00	 4.443E+02	 3.123E+00	-1.724E+00	 9.756E+00	-1.276E+01	 1.118E+01	 3.753E+01	-2.621E-02	 2.377E-01	 2.584E+00	 1.928E-01	 4.154E-02	 1.266E-01	 1.858E-02	-3.009E-04	-5.162E+00
  11.988	 1.642E+01	 3.504E+00	 2.868E+00	 2.170E+00	 4.444E+02	 3.104E+00	-1.669E+00	-1.177E+01	-1.280E+01	 1.105E+01	 3.754E+01	-1.249E-01	 2.013E-01	 2.576E+00	 1.925E-01	 4.605E-02	 1.271E-01	 1.862E-02	-2.913E-04	-5.131E+00
  12.000	 1.639E+01	 3.476E+00	 2.307E+00	 2.964E+00	 4.446E+02	 3.082E+00	-2.033E+00	-3.740E+01	-1.284E+01	 1.092E+01	 3.757E+01	-2.154E-01	 1.934E-01	 2.655E+00	 1.923E-01	 4.579E-02	 1.276E-01	 1.865E-02	-3.548E-04	-5.171E+00
  12.011	 1.634E+01	 3.331E+00	 1.366E+00	 3.239E+00	 4.447E+02	 3.057E+00	-2.242E+00	 5.891E+00	-1.287E+01	 1.080E+01	 3.759E+01	-2.482E-01	 2.228E-01	 2.658E+00	 1.920E-01	 3.913E-02	 1.287E-01	 1.875E-02	-3.913E-04	-5.193E+00
  12.023	 1.628E+01	 3.099E+00	 1.307E+00	 3.426E+00	 4.448E+02	 3.032E+00	-1.992E+00	 3.139E+01	-1.291E+01	 1.068E+01	 3.758E+01	-2.126E-01	 2.557E-01	 2.593E+00	 1.918E-01	 3.715E-02	 1.299E-01	 1.885E-02	-3.477E-04	-5.161E+00
  12.034	 1.623E+01	 2.834E+00	 2.300E+00	 3.508E+00	 4.449E+02	 3.011E+00	-1.708E+00	 1.021E+01	-1.294E+01	 1.057E+01	 3.759E+01	-1.300E-01	 2.943E-01	 2.626E+00	 1.913E-01	 3.883E-02	 1.311E-01	 1.895E-02	-2.980E-04	-5.139E+00
  12.046	 1.617E+01	 2.191E+00	 3.016E+00	 3.463E+00	 4.451E+02	 2.991E+00	-1.795E+00	-1.703E+01	-1.298E+01	 1.044E+01	 3.760E+01	-2.515E-02	 3.360E-01	 2.678E+00	 1.910E-01	 3.992E-02	 1.323E-01	 1.906E-02	-3.074E-03	-5.169E+00
  12.058	 1.617E+01	 1.263E+00	 3.269E+00	 3.304E+00	 4.452E+02	 2.969E+00	-1.925E+00	-1.146E+00	-1.302E+01	 1.039E+01	 3.761E+01	 6.820E-02	 3.454E-01	 2.580E+00	 1.908E-01	 3.921E-02	 1.322E-01	 1.903E-02	-9.496E-03	-5.179E+00
  12.069	 1.620E+01	 1.423E+00	 3.445E+00	 3.064E+00	 4.453E+02	 2.948E+00	-1.750E+00	 3.456E+01	-1.305E+01	 1.038E+01	 3.764E+01	 1.406E-01	 3.347E-01	 2.525E+00	 1.904E-01	 3.534E-02	 1.313E-01	 1.893E-02	-1.585E-02	-5.179E+00
  12.081	 1.623E+01	 2.428E+00	 3.511E+00	 2.791E+00	 4.454E+02	 2.930E+00	-1.202E+00	 5.393E+01	-1.309E+01	 1.037E+01	 3.768E+01	 1.597E-01	 3.314E-01	 2.588E+00	 1.900E-01	 3.283E-02	 1.304E-01	 1.883E-02	-2.086E-02	-5.153E+00
  12.093	 1.627E+01	 3.056E+00	 3.449E+00	 2.064E+00	 4.454E+02	 2.919E+00	-6.817E-01	 2.622E+01	-1.314E+01	 1.036E+01	 3.771E+01	 1.147E-01	 3.048E-01	 2.590E+00	 1.897E-01	 3.648E-02	 1.295E-01	 1.873E-02	-2.402E-02	-5.117E+00
  12.104	 1.629E+01	 3.299E+00	 3.275E+00	 1.181E+00	 4.455E+02	 2.912E+00	-5.969E-01	-4.380E+00	-1.319E+01	 1.043E+01	 3.775E+01	 4.049E-02	 2.540E-01	 2.511E+00	 1.895E-01	 4.205E-02	 1.288E-01	 1.865E-02	-2.608E-02	-5.141E+00
  12.116	 1.629E+01	 3.461E+00	 3.027E+00	 1.557E+00	 4.456E+02	 2.905E+00	-5.790E-01	 1.324E+01	-1.324E+01	 1.065E+01	 3.776E+01	-3.786E-02	 2.297E-01	 2.538E+00	 1.893E-01	 4.086E-02	 1.284E-01	 1.861E-02	-2.815E-02	-5.202E+00
  12.127	 1.630E+01	 3.511E+00	 2.730E+00	 2.552E+00	 4.457E+02	 2.900E+00	-3.460E-01	 2.383E+01	-1.328E+01	 1.087E+01	 3.776E+01	-1.281E-01	 2.161E-01	 2.608E+00	 1.890E-01	 3.717E-02	 1.281E-01	 1.857E-02	-2.972E-02	-5.184E+00
  12.139	 1.631E+01	 3.431E+00	 1.924E+00	 3.094E+00	 4.458E+02	 2.898E+00	-5.086E-02	 2.286E+01	-1.334E+01	 1.109E+01	 3.775E+01	-2.140E-01	 2.079E-01	 2.609E+00	 1.889E-01	 3.428E-02	 1.277E-01	 1.852E-02	-3.038E-02	-5.126E+00
  12.151	 1.632E+01	 3.244E+00	 1.123E+00	 3.328E+00	 4.459E+02	 2.898E+00	 8.067E-02	-1.538E+00	-1.339E+01	 1.130E+01	 3.776E+01	-2.552E-01	 2.237E-01	 2.619E+00	 1.887E-01	 3.973E-02	 1.273E-01	 1.847E-02	-3.022E-02	-5.139E+00
  12.162	 1.642E+01	 2.987E+00	 1.702E+00	 3.475E+00	 4.460E+02	 2.899E+00	-2.732E-02	-1.547E+01	-1.344E+01	 1.113E+01	 3.777E+01	-2.372E-01	 2.597E-01	 2.693E+00	 1.886E-01	 4.371E-02	 1.248E-01	 1.822E-02	-3.011E-02	-5.196E+00
  12.174	 1.653E+01	 2.653E+00	 2.668E+00	 3.507E+00	 4.462E+02	 2.897E+00	-3.113E-01	-3.304E+01	-1.349E+01	 1.097E+01	 3.781E+01	-1.465E-01	 2.964E-01	 2.700E+00	 1.883E-01	 4.467E-02	 1.224E-01	 1.797E-02	-3.067E-02	-5.201E+00
  12.186	 1.664E+01	 1.775E+00	 3.132E+00	 3.409E+00	 4.463E+02	 2.891E+00	-6.283E-01	-1.097E+01	-1.354E+01	 1.079E+01	 3.785E+01	-8.622E-03	 3.359E-01	 2.708E+00	 1.881E-01	 3.752E-02	 1.199E-01	 1.771E-02	-3.249E-02	-5.189E+00
  12.197	 1.675E+01	 1.104E+00	 3.356E+00	 3.209E+00	 4.465E+02	 2.884E+00	-5.690E-01	 1.475E+01	-1.359E+01	 1.063E+01	 3.789E+01	 1.179E-01	 3.705E-01	 2.731E+00	 1.878E-01	 3.248E-02	 1.176E-01	 1.747E-02	-3.461E-02	-5.165E+00
  12.209	 1.685E+01	 1.856E+00	 3.488E+00	 2.947E+00	 4.466E+02	 2.878E+00	-4.769E-01	-6.512E+00	-1.363E+01	 1.082E+01	 3.791E+01	 1.937E-01	 3.869E-01	 2.692E+00	 1.875E-01	 3.995E-02	 1.152E-01	 1.722E-02	-3.631E-02	-5.161E+00
  12.220	 1.696E+01	 2.775E+00	 3.501E+00	 2.561E+00	 4.468E+02	 2.871E+00	-7.458E-01	-3.384E+01	-1.368E+01	 1.112E+01	 3.792E+01	 1.928E-01	 3.742E-01	 2.646E+00	 1.871E-01	 4.400E-02	 1.128E-01	 1.697E-02	-3.835E-02	-5.166E+00
  12.232	 1.707E+01	 3.171E+00	 3.385E+00	 1.628E+00	 4.469E+02	 2.860E+00	-1.067E+00	-1.668E+01	-1.372E+01	 1.143E+01	 3.794E+01	 1.265E-01	 3.388E-01	 2.674E+00	 1.867E-01	 3.956E-02	 1.104E-01	 1.672E-02	-4.170E-02	-5.175E+00
  12.244	 1.717E+01	 3.384E+00	 3.172E+00	 1.138E+00	 4.471E+02	 2.847E+00	-1.150E+00	 4.644E+00	-1.376E+01	 1.173E+01	 3.795E+01	 2.233E-02	 2.840E-01	 2.619E+00	 1.863E-01	 3.532E-02	 1.082E-01	 1.648E-02	-4.557E-02	-5.172E+00
  12.255	 1.722E+01	 3.499E+00	 2.906E+00	 2.017E+00	 4.472E+02	 2.835E+00	-9.693E-01	 1.676E+01	-1.380E+01	 1.193E+01	 3.796E+01	-9.175E-02	 2.163E-01	 2.527E+00	 1.861E-01	 3.863E-02	 1.071E-01	 1.635E-02	-4.919E-02	-5.143E+00
  12.267	 1.719E+01	 3.490E+00	 2.420E+00	 2.895E+00	 4.473E+02	 2.824E+00	-9.104E-01	-3.333E+00	-1.384E+01	 1.204E+01	 3.800E+01	-2.015E-01	 1.845E-01	 2.620E+00	 1.857E-01	 4.150E-02	 1.075E-01	 1.638E-02	-5.245E-02	-5.141E+00
  12.279	 1.716E+01	 3.358E+00	 1.482E+00	 3.208E+00	 4.474E+02	 2.813E+00	-8.973E-01	 4.710E+00	-1.388E+01	 1.214E+01	 3.802E+01	-2.578E-01	 1.920E-01	 2.651E+00	 1.853E-01	 3.826E-02	 1.079E-01	 1.640E-02	-5.556E-02	-5.152E+00
  12.290	 1.713E+01	 3.132E+00	 1.215E+00	 3.409E+00	 4.475E+02	 2.803E+00	-8.554E-01	 2.111E+00	-1.392E+01	 1.224E+01	 3.803E+01	-2.571E-01	 2.097E-01	 2.603E+00	 1.852E-01	 3.960E-02	 1.082E-01	 1.643E-02	-5.853E-02	-5.178E+00
  12.302	 1.711E+01	 2.864E+00	 2.178E+00	 3.506E+00	 4.476E+02	 2.794E+00	-8.201E-01	 5.167E+00	-1.396E+01	 1.230E+01	 3.807E+01	-1.999E-01	 2.568E-01	 2.654E+00	 1.848E-01	 4.207E-02	 1.085E-01	 1.644E-02	-6.140E-02	-5.179E+00
  12.313	 1.715E+01	 2.326E+00	 2.952E+00	 3.480E+00	 4.478E+02	 2.785E+00	-7.506E-01	 4.183E+00	-1.399E+01	 1.206E+01	 3.811E+01	-7.457E-02	 3.327E-01	 2.739E+00	 1.847E-01	 4.242E-02	 1.076E-01	 1.635E-02	-6.406E-02	-5.161E+00
  12.325	 1.719E+01	 1.341E+00	 3.245E+00	 3.327E+00	 4.479E+02	 2.776E+00	-7.656E-01	-2.895E+00	-1.403E+01	 1.181E+01	 3.812E+01	 7.333E-02	 3.778E-01	 2.710E+00	 1.843E-01	 4.200E-02	 1.068E-01	 1.625E-02	-6.673E-02	-5.185E+00
  12.337	 1.724E+01	 1.330E+00	 3.432E+00	 3.090E+00	 4.481E+02	 2.767E+00	-5.756E-01	 4.232E+01	-1.407E+01	 1.158E+01	 3.814E+01	 1.768E-01	 3.782E-01	 2.671E+00	 1.842E-01	 3.485E-02	 1.060E-01	 1.616E-02	-6.914E-02	-5.199E+00
  12.348	 1.728E+01	 2.336E+00	 3.510E+00	 2.821E+00	 4.482E+02	 2.764E+00	-7.484E-02	 2.444E+01	-1.411E+01	 1.134E+01	 3.815E+01	 1.895E-01	 3.752E-01	 2.662E+00	 1.835E-01	 4.189E-02	 1.052E-01	 1.606E-02	-7.010E-02	-5.141E+00
  12.360	 1.723E+01	 3.032E+00	 3.459E+00	 2.146E+00	 4.483E+02	 2.763E+00	-1.742E-01	-2.805E+01	-1.415E+01	 1.163E+01	 3.816E+01	 1.353E-01	 3.442E-01	 2.677E+00	 1.833E-01	 4.732E-02	 1.058E-01	 1.611E-02	-7.036E-02	-5.142E+00
  12.372	 1.717E+01	 3.282E+00	 3.292E+00	 1.226E+00	 4.484E+02	 2.759E+00	-4.309E-01	-1.073E+01	-1.419E+01	 1.199E+01	 3.820E+01	 5.715E-02	 2.753E-01	 2.610E+00	 1.828E-01	 4.613E-02	 1.068E-01	 1.619E-02	-7.150E-02	-5.180E+00
  12.383	 1.711E+01	 3.453E+00	 3.046E+00	 1.480E+00	 4.486E+02	 2.754E+00	-3.740E-01	 1.873E+01	-1.422E+01	 1.236E+01	 3.822E+01	-4.043E-02	 2.212E-01	 2.556E+00	 1.827E-01	 4.496E-02	 1.077E-01	 1.627E-02	-7.296E-02	-5.188E+00
  12.395	 1.706E+01	 3.511E+00	 2.762E+00	 2.490E+00	 4.487E+02	 2.751E+00	-1.531E-01	 1.360E+01	-1.426E+01	 1.273E+01	 3.823E+01	-1.576E-01	 1.815E-01	 2.564E+00	 1.821E-01	 4.526E-02	 1.086E-01	 1.636E-02	-7.380E-02	-5.131E+00
  12.407	 1.702E+01	 3.439E+00	 1.989E+00	 3.078E+00	 4.487E+02	 2.750E+00	-1.527E-01	-1.198E+01	-1.429E+01	 1.292E+01	 3.825E+01	-2.546E-01	 1.650E-01	 2.582E+00	 1.818E-01	 4.757E-02	 1.091E-01	 1.639E-02	-7.425E-02	-5.128E+00
  12.418	 1.701E+01	 3.256E+00	 1.145E+00	 3.317E+00	 4.488E+02	 2.747E+00	-3.332E-01	-1.260E+01	-1.433E+01	 1.292E+01	 3.827E+01	-2.825E-01	 1.845E-01	 2.558E+00	 1.815E-01	 4.963E-02	 1.091E-01	 1.639E-02	-7.511E-02	-5.180E+00
  12.430	 1.700E+01	 3.001E+00	 1.649E+00	 3.472E+00	 4.489E+02	 2.743E+00	-3.257E-01	 1.138E+01	-1.436E+01	 1.292E+01	 3.829E+01	-2.296E-01	 2.307E-01	 2.560E+00	 1.814E-01	 4.809E-02	 1.092E-01	 1.638E-02	-7.632E-02	-5.192E+00
  12.441	 1.699E+01	 2.680E+00	 2.632E+00	 3.509E+00	 4.490E+02	 2.740E+00	-2.547E-01	-1.630E+00	-1.439E+01	 1.292E+01	 3.831E+01	-1.043E-01	 2.829E-01	 2.576E+00	 1.810E-01	 4.654E-02	 1.092E-01	 1.638E-02	-7.725E-02	-5.152E+00
  12.453	 1.700E+01	 1.820E+00	 3.123E+00	 3.416E+00	 4.491E+02	 2.737E+00	-2.693E-01	 5.443E+00	-1.442E+01	 1.302E+01	 3.832E+01	 3.624E-02	 3.355E-01	 2.558E+00	 1.806E-01	 4.245E-02	 1.087E-01	 1.632E-02	-7.822E-02	-5.154E+00
  12.465	 1.710E+01	 1.111E+00	 3.351E+00	 3.217E+00	 4.491E+02	 2.734E+00	-1.345E-01	 1.574E+01	-1.444E+01	 1.340E+01	 3.832E+01	 1.345E-01	 3.708E-01	 2.538E+00	 1.806E-01	 4.478E-02	 1.066E-01	 1.610E-02	-7.892E-02	-5.167E+00
  12.476	 1.720E+01	 1.828E+00	 3.487E+00	 2.955E+00	 4.492E+02	 2.734E+00	 4.317E-02	 8.064E+00	-1.447E+01	 1.378E+01	 3.833E+01	 1.794E-01	 3.782E-01	 2.552E+00	 1.803E-01	 4.678E-02	 1.046E-01	 1.588E-02	-7.902E-02	-5.153E+00
  12.488	 1.731E+01	 2.760E+00	 3.503E+00	 2.578E+00	 4.493E+02	 2.734E+00	-1.420E-02	-1.363E+01	-1.449E+01	 1.415E+01	 3.834E+01	 1.716E-01	 3.612E-01	 2.563E+00	 1.801E-01	 4.479E-02	 1.026E-01	 1.567E-02	-7.891E-02	-5.160E+00
  12.500	 1.741E+01	 3.167E+00	 3.388E+00	 1.647E+00	 4.494E+02	 2.733E+00	-6.974E-02	 1.033E+01	-1.451E+01	 1.454E+01	 3.837E+01	 1.197E-01	 3.211E-01	 2.558E+00	 1.797E-01	 3.968E-02	 1.006E-01	 1.546E-02	-7.916E-02	-5.199E+00
  12.511	 1.738E+01	 3.382E+00	 3.175E+00	 1.135E+00	 4.495E+02	 2.734E+00	 2.183E-01	 3.542E+01	-1.453E+01	 1.466E+01	 3.837E+01	 2.011E-02	 2.732E-01	 2.590E+00	 1.799E-01	 3.676E-02	 1.011E-01	 1.550E-02	-7.894E-02	-5.180E+00
  12.523	 1.733E+01	 3.499E+00	 2.909E+00	 2.010E+00	 4.496E+02	 2.739E+00	 5.655E-01	 1.494E+01	-1.455E+01	 1.477E+01	 3.837E+01	-1.163E-01	 2.183E-01	 2.603E+00	 1.795E-01	 3.828E-02	 1.018E-01	 1.556E-02	-7.747E-02	-5.148E+00
  12.534	 1.729E+01	 3.493E+00	 2.454E+00	 2.870E+00	 4.497E+02	 2.745E+00	 5.852E-01	-3.081E+00	-1.457E+01	 1.489E+01	 3.839E+01	-2.236E-01	 1.861E-01	 2.607E+00	 1.794E-01	 3.688E-02	 1.024E-01	 1.562E-02	-7.544E-02	-5.177E+00
  12.546	 1.724E+01	 3.358E+00	 1.475E+00	 3.209E+00	 4.498E+02	 2.753E+00	 6.613E-01	 1.718E+01	-1.459E+01	 1.501E+01	 3.840E+01	-2.721E-01	 1.782E-01	 2.644E+00	 1.790E-01	 3.442E-02	 1.031E-01	 1.568E-02	-7.329E-02	-5.213E+00
  12.558	 1.729E+01	 3.131E+00	 1.218E+00	 3.411E+00	 4.499E+02	 2.762E+00	 9.471E-01	 3.081E+01	-1.461E+01	 1.488E+01	 3.841E+01	-2.530E-01	 1.901E-01	 2.636E+00	 1.791E-01	 3.110E-02	 1.022E-01	 1.558E-02	-7.054E-02	-5.181E+00
  12.569	 1.739E+01	 2.861E+00	 2.192E+00	 3.508E+00	 4.500E+02	 2.775E+00	 1.260E+00	 1.893E+01	-1.464E+01	 1.464E+01	 3.845E+01	-1.784E-01	 2.229E-01	 2.578E+00	 1.786E-01	 3.093E-02	 1.004E-01	 1.539E-02	-6.667E-02	-5.150E+00
  12.581	 1.748E+01	 2.310E+00	 2.961E+00	 3.480E+00	 4.501E+02	 2.790E+00	 1.435E+00	 1.598E+01	-1.466E+01	 1.440E+01	 3.849E+01	-7.410E-02	 2.748E-01	 2.612E+00	 1.785E-01	 2.989E-02	 9.870E-02	 1.521E-02	-6.203E-02	-5.170E+00
  12.593	 1.758E+01	 1.319E+00	 3.251E+00	 3.324E+00	 4.502E+02	 2.809E+00	 1.626E+00	 8.973E+00	-1.468E+01	 1.416E+01	 3.853E+01	 3.851E-02	 3.280E-01	 2.630E+00	 1.781E-01	 3.029E-02	 9.692E-02	 1.502E-02	-5.653E-02	-5.161E+00
  12.604	 1.764E+01	 1.354E+00	 3.437E+00	 3.084E+00	 4.503E+02	 2.827E+00	 1.577E+00	-1.518E+01	-1.471E+01	 1.403E+01	 3.856E+01	 1.499E-01	 3.691E-01	 2.612E+00	 1.782E-01	 3.173E-02	 9.583E-02	 1.489E-02	-5.099E-02	-5.165E+00
  12.616	 1.764E+01	 2.369E+00	 3.513E+00	 2.810E+00	 4.504E+02	 2.844E+00	 1.334E+00	-1.978E+01	-1.473E+01	 1.411E+01	 3.857E+01	 2.098E-01	 3.926E-01	 2.615E+00	 1.777E-01	 3.289E-02	 9.581E-02	 1.488E-02	-4.605E-02	-5.188E+00
  12.627	 1.763E+01	 3.031E+00	 3.462E+00	 2.144E+00	 4.505E+02	 2.859E+00	 1.253E+00	 4.163E+00	-1.474E+01	 1.419E+01	 3.856E+01	 1.848E-01	 3.819E-01	 2.655E+00	 1.775E-01	 2.845E-02	 9.576E-02	 1.487E-02	-4.173E-02	-5.165E+00
  12.639	 1.763E+01	 3.292E+00	 3.285E+00	 1.190E+00	 4.506E+02	 2.874E+00	 1.189E+00	-2.219E+01	-1.476E+01	 1.427E+01	 3.855E+01	 7.655E-02	 3.333E-01	 2.635E+00	 1.772E-01	 2.960E-02	 9.571E-02	 1.485E-02	-3.729E-02	-5.125E+00
  12.651	 1.762E+01	 3.460E+00	 3.034E+00	 1.525E+00	 4.507E+02	 2.885E+00	 7.974E-01	-4.072E+01	-1.478E+01	 1.434E+01	 3.855E+01	-5.641E-02	 2.638E-01	 2.603E+00	 1.771E-01	 3.216E-02	 9.570E-02	 1.484E-02	-3.392E-02	-5.161E+00
  12.662	 1.758E+01	 3.513E+00	 2.736E+00	 2.537E+00	 4.509E+02	 2.892E+00	 2.969E-01	-4.180E+01	-1.478E+01	 1.423E+01	 3.857E+01	-1.757E-01	 2.031E-01	 2.609E+00	 1.765E-01	 3.555E-02	 9.623E-02	 1.488E-02	-3.213E-02	-5.175E+00
  12.674	 1.754E+01	 3.433E+00	 1.923E+00	 3.094E+00	 4.510E+02	 2.892E+00	-1.172E-01	-2.769E+01	-1.479E+01	 1.412E+01	 3.859E+01	-2.581E-01	 1.729E-01	 2.624E+00	 1.762E-01	 3.195E-02	 9.678E-02	 1.493E-02	-3.194E-02	-5.147E+00
  12.686	 1.750E+01	 3.243E+00	 1.115E+00	 3.331E+00	 4.510E+02	 2.889E+00	-4.284E-01	-2.640E+01	-1.478E+01	 1.400E+01	 3.861E+01	-2.760E-01	 1.659E-01	 2.569E+00	 1.759E-01	 2.883E-02	 9.732E-02	 1.498E-02	-3.293E-02	-5.130E+00
  12.697	 1.746E+01	 2.984E+00	 1.719E+00	 3.480E+00	 4.511E+02	 2.883E+00	-7.013E-01	-2.453E+01	-1.478E+01	 1.388E+01	 3.864E+01	-2.207E-01	 1.953E-01	 2.535E+00	 1.757E-01	 3.058E-02	 9.787E-02	 1.502E-02	-3.491E-02	-5.146E+00
  12.709	 1.747E+01	 2.637E+00	 2.690E+00	 3.508E+00	 4.512E+02	 2.873E+00	-1.049E+00	-3.268E+01	-1.477E+01	 1.369E+01	 3.867E+01	-9.709E-02	 2.451E-01	 2.572E+00	 1.754E-01	 3.277E-02	 9.756E-02	 1.498E-02	-3.793E-02	-5.147E+00
  12.720	 1.750E+01	 1.780E+00	 3.132E+00	 3.412E+00	 4.513E+02	 2.859E+00	-1.321E+00	-1.096E+01	-1.475E+01	 1.348E+01	 3.868E+01	 3.688E-02	 2.932E-01	 2.581E+00	 1.750E-01	 2.757E-02	 9.694E-02	 1.491E-02	-4.210E-02	-5.154E+00
  12.732	 1.753E+01	 1.109E+00	 3.367E+00	 3.198E+00	 4.513E+02	 2.843E+00	-1.278E+00	 1.843E+01	-1.473E+01	 1.325E+01	 3.870E+01	 1.348E-01	 3.305E-01	 2.556E+00	 1.750E-01	 2.284E-02	 9.631E-02	 1.484E-02	-4.682E-02	-5.148E+00
  12.744	 1.756E+01	 1.920E+00	 3.494E+00	 2.932E+00	 4.514E+02	 2.830E+00	-9.824E-01	 2.300E+01	-1.471E+01	 1.304E+01	 3.871E+01	 1.643E-01	 3.549E-01	 2.584E+00	 1.748E-01	 2.425E-02	 9.573E-02	 1.477E-02	-5.065E-02	-5.140E+00
  12.755	 1.754E+01	 2.821E+00	 3.499E+00	 2.513E+00	 4.515E+02	 2.820E+00	-8.265E-01	 9.968E+00	-1.470E+01	 1.285E+01	 3.873E+01	 1.331E-01	 3.589E-01	 2.611E+00	 1.745E-01	 2.469E-02	 9.599E-02	 1.479E-02	-5.366E-02	-5.150E+00
  12.767	 1.745E+01	 3.190E+00	 3.373E+00	 1.547E+00	 4.516E+02	 2.811E+00	-5.833E-01	 3.238E+01	-1.468E+01	 1.268E+01	 3.875E+01	 6.780E-02	 3.272E-01	 2.569E+00	 1.741E-01	 2.192E-02	 9.745E-02	 1.493E-02	-5.621E-02	-5.171E+00
  12.779	 1.736E+01	 3.399E+00	 3.151E+00	 1.177E+00	 4.517E+02	 2.807E+00	-1.310E-01	 4.464E+01	-1.466E+01	 1.251E+01	 3.875E+01	-1.991E-02	 2.879E-01	 2.528E+00	 1.741E-01	 2.080E-02	 9.888E-02	 1.507E-02	-5.739E-02	-5.156E+00
  12.790	 1.727E+01	 3.505E+00	 2.881E+00	 2.123E+00	 4.517E+02	 2.808E+00	 4.138E-01	 4.607E+01	-1.465E+01	 1.235E+01	 3.875E+01	-1.183E-01	 2.486E-01	 2.521E+00	 1.736E-01	 2.054E-02	 1.003E-01	 1.520E-02	-5.681E-02	-5.142E+00
  12.802	 1.718E+01	 3.486E+00	 2.366E+00	 2.930E+00	 4.518E+02	 2.816E+00	 9.174E-01	 4.202E+01	-1.464E+01	 1.218E+01	 3.874E+01	-1.965E-01	 2.178E-01	 2.489E+00	 1.734E-01	 1.950E-02	 1.018E-01	 1.535E-02	-5.444E-02	-5.129E+00
  12.813	 1.710E+01	 3.346E+00	 1.411E+00	 3.226E+00	 4.518E+02	 2.829E+00	 1.357E+00	 3.201E+01	-1.463E+01	 1.199E+01	 3.872E+01	-2.298E-01	 1.970E-01	 2.461E+00	 1.730E-01	 2.255E-02	 1.033E-01	 1.549E-02	-5.045E-02	-5.143E+00
  12.825	 1.701E+01	 3.101E+00	 1.311E+00	 3.429E+00	 4.518E+02	 2.847E+00	 1.648E+00	 1.968E+01	-1.463E+01	 1.178E+01	 3.871E+01	-2.080E-01	 1.918E-01	 2.436E+00	 1.731E-01	 2.279E-02	 1.050E-01	 1.565E-02	-4.501E-02	-5.146E+00
  12.837	 1.692E+01	 2.829E+00	 2.319E+00	 3.512E+00	 4.518E+02	 2.867E+00	 1.846E+00	 1.533E+01	-1.463E+01	 1.159E+01	 3.873E+01	-1.425E-01	 2.089E-01	 2.425E+00	 1.728E-01	 2.260E-02	 1.066E-01	 1.580E-02	-3.899E-02	-5.146E+00
  12.848	 1.684E+01	 2.195E+00	 3.013E+00	 3.468E+00	 4.519E+02	 2.890E+00	 2.065E+00	 2.411E+01	-1.462E+01	 1.139E+01	 3.877E+01	-3.852E-02	 2.469E-01	 2.493E+00	 1.727E-01	 1.871E-02	 1.082E-01	 1.596E-02	-3.231E-02	-5.136E+00
  12.860	 1.678E+01	 1.223E+00	 3.281E+00	 3.297E+00	 4.519E+02	 2.916E+00	 2.338E+00	 1.511E+01	-1.462E+01	 1.128E+01	 3.880E+01	 7.079E-02	 2.957E-01	 2.527E+00	 1.725E-01	 1.991E-02	 1.093E-01	 1.606E-02	-2.439E-02	-5.134E+00
  12.872	 1.672E+01	 1.483E+00	 3.454E+00	 3.048E+00	 4.520E+02	 2.944E+00	 2.339E+00	-1.519E+01	-1.462E+01	 1.119E+01	 3.883E+01	 1.495E-01	 3.236E-01	 2.463E+00	 1.727E-01	 2.299E-02	 1.102E-01	 1.615E-02	-1.631E-02	-5.131E+00
  12.883	 1.667E+01	 2.501E+00	 3.513E+00	 2.757E+00	 4.520E+02	 2.969E+00	 2.020E+00	-3.319E+01	-1.462E+01	 1.110E+01	 3.885E+01	 1.728E-01	 3.547E-01	 2.503E+00	 1.725E-01	 2.492E-02	 1.112E-01	 1.624E-02	-8.868E-03	-5.157E+00
  12.895	 1.662E+01	 3.071E+00	 3.445E+00	 2.007E+00	 4.521E+02	 2.990E+00	 1.762E+00	-8.259E+00	-1.461E+01	 1.100E+01	 3.885E+01	 1.345E-01	 3.648E-01	 2.605E+00	 1.722E-01	 1.969E-02	 1.122E-01	 1.633E-02	-2.549E-03	-5.157E+00
  12.907	 1.661E+01	 3.323E+00	 3.253E+00	 1.126E+00	 4.521E+02	 3.011E+00	 1.731E+00	-5.582E+00	-1.460E+01	 1.120E+01	 3.882E+01	 4.119E-02	 3.113E-01	 2.492E+00	 1.722E-01	 1.782E-02	 1.122E-01	 1.633E-02	 3.021E-04	-5.106E+00
  12.918	 1.664E+01	 3.476E+00	 2.995E+00	 1.683E+00	 4.522E+02	 3.030E+00	 1.525E+00	-3.046E+01	-1.459E+01	 1.165E+01	 3.882E+01	-7.682E-02	 2.530E-01	 2.423E+00	 1.721E-01	 2.150E-02	 1.115E-01	 1.625E-02	 2.661E-04	-5.100E+00
  12.930	 1.666E+01	 3.510E+00	 2.657E+00	 2.665E+00	 4.523E+02	 3.045E+00	 1.111E+00	-3.366E+01	-1.458E+01	 1.208E+01	 3.883E+01	-1.865E-01	 2.218E-01	 2.540E+00	 1.719E-01	 2.255E-02	 1.108E-01	 1.617E-02	 1.938E-04	-5.147E+00
  12.941	 1.669E+01	 3.417E+00	 1.810E+00	 3.124E+00	 4.523E+02	 3.057E+00	 8.510E-01	-1.397E+01	-1.456E+01	 1.252E+01	 3.883E+01	-2.409E-01	 1.985E-01	 2.537E+00	 1.715E-01	 1.943E-02	 1.101E-01	 1.610E-02	 1.485E-04	-5.132E+00
  12.953	 1.673E+01	 3.206E+00	 1.108E+00	 3.361E+00	 4.524E+02	 3.066E+00	 6.666E-01	-2.000E+01	-1.454E+01	 1.288E+01	 3.884E+01	-2.155E-01	 1.884E-01	 2.427E+00	 1.717E-01	 1.946E-02	 1.093E-01	 1.601E-02	 1.163E-04	-5.083E+00
  12.965	 1.677E+01	 2.940E+00	 1.897E+00	 3.492E+00	 4.524E+02	 3.072E+00	 3.475E-01	-3.848E+01	-1.452E+01	 1.298E+01	 3.885E+01	-1.454E-01	 2.240E-01	 2.476E+00	 1.714E-01	 2.376E-02	 1.083E-01	 1.592E-02	 6.065E-05	-5.098E+00
  12.976	 1.681E+01	 2.530E+00	 2.808E+00	 3.500E+00	 4.525E+02	 3.073E+00	-1.927E-01	-4.958E+01	-1.449E+01	 1.307E+01	 3.885E+01	-4.529E-02	 2.672E-01	 2.562E+00	 1.713E-01	 2.681E-02	 1.074E-01	 1.582E-02	-3.364E-05	-5.150E+00
  12.988	 1.686E+01	 1.611E+00	 3.175E+00	 3.384E+00	 4.525E+02	 3.068E+00	-6.476E-01	-2.604E+01	-1.446E+01	 1.316E+01	 3.885E+01	 6.381E-02	 2.885E-01	 2.496E+00	 1.709E-01	 2.252E-02	 1.065E-01	 1.572E-02	-1.130E-04	-5.141E+00
  13.000	 1.691E+01	 1.173E+00	 3.396E+00	 3.156E+00	 4.526E+02	 3.059E+00	-8.553E-01	-1.549E+01	-1.442E+01	 1.325E+01	 3.887E+01	 1.504E-01	 3.000E-01	 2.412E+00	 1.710E-01	 1.936E-02	 1.055E-01	 1.562E-02	-1.493E-04	-5.090E+00
  13.011	 1.692E+01	 2.110E+00	 3.504E+00	 2.886E+00	 4.526E+02	 3.047E+00	-1.161E+00	-4.425E+01	-1.439E+01	 1.318E+01	 3.889E+01	 1.600E-01	 3.119E-01	 2.416E+00	 1.706E-01	 2.631E-02	 1.052E-01	 1.558E-02	-2.026E-04	-5.092E+00
  13.023	 1.693E+01	 2.925E+00	 3.486E+00	 2.379E+00	 4.526E+02	 3.030E+00	-1.776E+00	-5.001E+01	-1.435E+01	 1.311E+01	 3.891E+01	 1.084E-01	 3.068E-01	 2.436E+00	 1.707E-01	 2.634E-02	 1.049E-01	 1.555E-02	-3.099E-04	-5.142E+00
  13.034	 1.694E+01	 3.224E+00	 3.347E+00	 1.424E+00	 4.526E+02	 3.008E+00	-2.047E+00	 4.423E+00	-1.430E+01	 1.303E+01	 3.892E+01	 1.457E-02	 2.859E-01	 2.424E+00	 1.703E-01	 1.730E-02	 1.046E-01	 1.552E-02	-3.572E-04	-5.143E+00
  13.046	 1.695E+01	 3.427E+00	 3.104E+00	 1.305E+00	 4.526E+02	 2.984E+00	-1.829E+00	 2.229E+01	-1.425E+01	 1.295E+01	 3.892E+01	-1.037E-01	 2.590E-01	 2.393E+00	 1.705E-01	 1.434E-02	 1.043E-01	 1.548E-02	-4.951E-03	-5.084E+00
  13.058	 1.686E+01	 3.510E+00	 2.833E+00	 2.312E+00	 4.527E+02	 2.964E+00	-1.808E+00	-2.151E+01	-1.421E+01	 1.313E+01	 3.893E+01	-1.864E-01	 2.221E-01	 2.438E+00	 1.703E-01	 2.280E-02	 1.059E-01	 1.565E-02	-1.100E-02	-5.110E+00
  13.069	 1.671E+01	 3.467E+00	 2.204E+00	 3.011E+00	 4.527E+02	 2.942E+00	-2.016E+00	 5.325E+00	-1.416E+01	 1.347E+01	 3.893E+01	-2.205E-01	 2.210E-01	 2.510E+00	 1.703E-01	 1.828E-02	 1.087E-01	 1.592E-02	-1.765E-02	-5.186E+00
  13.081	 1.656E+01	 3.307E+00	 1.260E+00	 3.270E+00	 4.527E+02	 2.920E+00	-1.568E+00	 5.976E+01	-1.412E+01	 1.381E+01	 3.890E+01	-1.932E-01	 2.285E-01	 2.469E+00	 1.701E-01	 1.358E-02	 1.116E-01	 1.619E-02	-2.387E-02	-5.145E+00
  13.093	 1.640E+01	 3.051E+00	 1.482E+00	 3.453E+00	 4.528E+02	 2.906E+00	-9.902E-01	 2.908E+01	-1.408E+01	 1.419E+01	 3.887E+01	-1.202E-01	 2.274E-01	 2.425E+00	 1.702E-01	 1.514E-02	 1.148E-01	 1.649E-02	-2.821E-02	-5.112E+00
  13.104	 1.630E+01	 2.761E+00	 2.500E+00	 3.512E+00	 4.528E+02	 2.895E+00	-8.007E-01	 1.579E+01	-1.404E+01	 1.427E+01	 3.885E+01	-5.979E-02	 2.431E-01	 2.479E+00	 1.701E-01	 1.783E-02	 1.168E-01	 1.668E-02	-3.118E-02	-5.176E+00
  13.116	 1.630E+01	 2.011E+00	 3.070E+00	 3.445E+00	 4.528E+02	 2.888E+00	-4.180E-01	 5.387E+01	-1.401E+01	 1.384E+01	 3.887E+01	 9.722E-03	 2.550E-01	 2.487E+00	 1.699E-01	 1.363E-02	 1.168E-01	 1.669E-02	-3.333E-02	-5.180E+00
  13.127	 1.630E+01	 1.145E+00	 3.314E+00	 3.264E+00	 4.528E+02	 2.887E+00	 2.711E-01	 5.349E+01	-1.398E+01	 1.341E+01	 3.892E+01	 8.659E-02	 2.659E-01	 2.430E+00	 1.698E-01	 1.153E-02	 1.169E-01	 1.669E-02	-3.345E-02	-5.119E+00
  13.139	 1.629E+01	 1.689E+00	 3.475E+00	 2.995E+00	 4.528E+02	 2.893E+00	 6.824E-01	 1.643E+01	-1.395E+01	 1.297E+01	 3.898E+01	 1.397E-01	 2.953E-01	 2.426E+00	 1.698E-01	 1.377E-02	 1.170E-01	 1.669E-02	-3.155E-02	-5.141E+00
  13.151	 1.629E+01	 2.669E+00	 3.509E+00	 2.656E+00	 4.529E+02	 2.902E+00	 7.879E-01	 1.062E+01	-1.393E+01	 1.257E+01	 3.901E+01	 1.437E-01	 3.305E-01	 2.481E+00	 1.699E-01	 1.672E-02	 1.170E-01	 1.669E-02	-2.901E-02	-5.187E+00
  13.162	 1.633E+01	 3.125E+00	 3.417E+00	 1.804E+00	 4.529E+02	 2.912E+00	 1.102E+00	 4.430E+01	-1.391E+01	 1.267E+01	 3.900E+01	 9.090E-02	 3.306E-01	 2.494E+00	 1.696E-01	 1.085E-02	 1.162E-01	 1.661E-02	-2.585E-02	-5.153E+00
  13.174	 1.636E+01	 3.363E+00	 3.205E+00	 1.107E+00	 4.529E+02	 2.929E+00	 1.581E+00	 2.229E+01	-1.389E+01	 1.277E+01	 3.898E+01	-9.413E-03	 3.025E-01	 2.487E+00	 1.697E-01	 1.170E-02	 1.154E-01	 1.654E-02	-2.090E-02	-5.114E+00
  13.186	 1.639E+01	 3.493E+00	 2.938E+00	 1.905E+00	 4.530E+02	 2.947E+00	 1.559E+00	-2.169E+01	-1.387E+01	 1.288E+01	 3.897E+01	-1.118E-01	 2.650E-01	 2.520E+00	 1.696E-01	 1.702E-02	 1.147E-01	 1.646E-02	-1.540E-02	-5.154E+00
  13.197	 1.643E+01	 3.501E+00	 2.520E+00	 2.814E+00	 4.531E+02	 2.964E+00	 1.297E+00	-1.538E+01	-1.385E+01	 1.297E+01	 3.896E+01	-1.976E-01	 2.254E-01	 2.542E+00	 1.696E-01	 1.862E-02	 1.139E-01	 1.638E-02	-1.060E-02	-5.184E+00
  13.209	 1.643E+01	 3.383E+00	 1.594E+00	 3.178E+00	 4.531E+02	 2.978E+00	 1.297E+00	 1.109E+01	-1.383E+01	 1.301E+01	 3.895E+01	-2.455E-01	 2.004E-01	 2.521E+00	 1.694E-01	 1.427E-02	 1.137E-01	 1.636E-02	-6.270E-03	-5.148E+00
  13.220	 1.643E+01	 3.164E+00	 1.151E+00	 3.392E+00	 4.532E+02	 2.994E+00	 1.379E+00	-2.621E+00	-1.381E+01	 1.302E+01	 3.895E+01	-2.253E-01	 1.910E-01	 2.528E+00	 1.694E-01	 1.231E-02	 1.137E-01	 1.635E-02	-1.642E-03	-5.114E+00
  13.232	 1.643E+01	 2.881E+00	 2.123E+00	 3.506E+00	 4.532E+02	 3.009E+00	 1.158E+00	-3.460E+01	-1.378E+01	 1.304E+01	 3.896E+01	-1.498E-01	 2.004E-01	 2.503E+00	 1.691E-01	 1.560E-02	 1.137E-01	 1.634E-02	 2.021E-04	-5.132E+00
  13.244	 1.643E+01	 2.360E+00	 2.932E+00	 3.487E+00	 4.533E+02	 3.020E+00	 6.896E-01	-3.587E+01	-1.375E+01	 1.305E+01	 3.899E+01	-4.967E-02	 2.223E-01	 2.480E+00	 1.691E-01	 1.963E-02	 1.136E-01	 1.634E-02	 1.204E-04	-5.170E+00
  13.255	 1.644E+01	 1.398E+00	 3.229E+00	 3.346E+00	 4.534E+02	 3.027E+00	 5.650E-01	 1.296E+01	-1.372E+01	 1.317E+01	 3.902E+01	 4.433E-02	 2.584E-01	 2.517E+00	 1.688E-01	 1.299E-02	 1.134E-01	 1.630E-02	 9.861E-05	-5.146E+00
  13.267	 1.646E+01	 1.313E+00	 3.431E+00	 3.099E+00	 4.534E+02	 3.035E+00	 7.851E-01	 1.206E+01	-1.369E+01	 1.347E+01	 3.908E+01	 1.233E-01	 2.905E-01	 2.504E+00	 1.689E-01	 6.814E-03	 1.128E-01	 1.624E-02	 1.370E-04	-5.090E+00
  13.279	 1.649E+01	 2.332E+00	 3.512E+00	 2.825E+00	 4.535E+02	 3.044E+00	 6.480E-01	-3.538E+01	-1.366E+01	 1.376E+01	 3.912E+01	 1.591E-01	 3.301E-01	 2.498E+00	 1.687E-01	 1.380E-02	 1.122E-01	 1.618E-02	 1.131E-04	-5.130E+00
  13.290	 1.651E+01	 3.019E+00	 3.467E+00	 2.177E+00	 4.536E+02	 3.048E+00	 2.610E-01	-1.268E+01	-1.363E+01	 1.404E+01	 3.913E+01	 1.385E-01	 3.656E-01	 2.574E+00	 1.686E-01	 1.566E-02	 1.116E-01	 1.612E-02	 4.556E-05	-5.198E+00
  13.302	 1.654E+01	 3.276E+00	 3.303E+00	 1.231E+00	 4.536E+02	 3.052E+00	 4.805E-01	 3.928E+01	-1.360E+01	 1.429E+01	 3.911E+01	 5.248E-02	 3.521E-01	 2.587E+00	 1.684E-01	 7.407E-03	 1.110E-01	 1.605E-02	 8.387E-05	-5.142E+00
  13.314	 1.658E+01	 3.457E+00	 3.043E+00	 1.503E+00	 4.537E+02	 3.060E+00	 8.399E-01	 1.211E+01	-1.357E+01	 1.430E+01	 3.908E+01	-6.983E-02	 3.106E-01	 2.535E+00	 1.684E-01	 4.064E-03	 1.100E-01	 1.595E-02	 1.466E-04	-5.095E+00
  13.325	 1.663E+01	 3.513E+00	 2.745E+00	 2.525E+00	 4.538E+02	 3.070E+00	 7.467E-01	-2.114E+01	-1.354E+01	 1.432E+01	 3.907E+01	-1.698E-01	 2.620E-01	 2.587E+00	 1.682E-01	 1.134E-02	 1.090E-01	 1.584E-02	 1.303E-04	-5.165E+00
  13.337	 1.667E+01	 3.441E+00	 1.974E+00	 3.079E+00	 4.539E+02	 3.077E+00	 5.772E-01	 2.108E+00	-1.351E+01	 1.433E+01	 3.908E+01	-2.217E-01	 2.257E-01	 2.616E+00	 1.680E-01	 1.285E-02	 1.080E-01	 1.574E-02	 1.007E-04	-5.196E+00
  13.348	 1.672E+01	 3.256E+00	 1.123E+00	 3.321E+00	 4.540E+02	 3.085E+00	 8.110E-01	 3.112E+01	-1.348E+01	 1.435E+01	 3.908E+01	-2.117E-01	 2.038E-01	 2.547E+00	 1.677E-01	 7.314E-03	 1.070E-01	 1.564E-02	 1.415E-04	-5.129E+00
  13.360	 1.676E+01	 2.985E+00	 1.724E+00	 3.480E+00	 4.541E+02	 3.097E+00	 1.103E+00	 8.946E+00	-1.346E+01	 1.426E+01	 3.907E+01	-1.693E-01	 1.987E-01	 2.508E+00	 1.675E-01	 4.213E-03	 1.062E-01	 1.554E-02	 1.925E-04	-5.101E+00
  13.372	 1.680E+01	 2.631E+00	 2.699E+00	 3.509E+00	 4.541E+02	 3.109E+00	 9.514E-01	-2.977E+01	-1.343E+01	 1.415E+01	 3.911E+01	-1.022E-01	 2.112E-01	 2.545E+00	 1.673E-01	 1.321E-02	 1.053E-01	 1.545E-02	 1.660E-04	-5.164E+00
  13.383	 1.683E+01	 1.757E+00	 3.136E+00	 3.411E+00	 4.542E+02	 3.118E+00	 6.645E-01	-1.094E+01	-1.341E+01	 1.405E+01	 3.915E+01	-1.249E-02	 2.342E-01	 2.523E+00	 1.669E-01	 1.518E-02	 1.045E-01	 1.537E-02	 1.160E-04	-5.188E+00
  13.395	 1.687E+01	 1.100E+00	 3.364E+00	 3.205E+00	 4.542E+02	 3.126E+00	 7.343E-01	 1.859E+01	-1.338E+01	 1.394E+01	 3.921E+01	 7.919E-02	 2.682E-01	 2.484E+00	 1.669E-01	 1.080E-02	 1.037E-01	 1.528E-02	 1.282E-04	-5.134E+00
  13.407	 1.686E+01	 1.955E+00	 3.497E+00	 2.926E+00	 4.543E+02	 3.136E+00	 9.230E-01	 2.404E+00	-1.335E+01	 1.388E+01	 3.926E+01	 1.483E-01	 3.114E-01	 2.494E+00	 1.665E-01	 6.710E-03	 1.039E-01	 1.529E-02	 1.611E-04	-5.101E+00
  13.418	 1.679E+01	 2.845E+00	 3.498E+00	 2.484E+00	 4.544E+02	 3.146E+00	 7.544E-01	-2.697E+01	-1.333E+01	 1.387E+01	 3.928E+01	 1.588E-01	 3.521E-01	 2.518E+00	 1.666E-01	 1.211E-02	 1.049E-01	 1.539E-02	 1.317E-04	-5.144E+00
  13.430	 1.673E+01	 3.191E+00	 3.374E+00	 1.540E+00	 4.544E+02	 3.153E+00	 4.525E-01	-2.054E+01	-1.330E+01	 1.386E+01	 3.927E+01	 1.033E-01	 3.573E-01	 2.522E+00	 1.662E-01	 1.492E-02	 1.060E-01	 1.548E-02	 7.897E-05	-5.175E+00
  13.441	 1.667E+01	 3.402E+00	 3.150E+00	 1.176E+00	 4.545E+02	 3.157E+00	 3.720E-01	 8.406E+00	-1.328E+01	 1.384E+01	 3.924E+01	 7.637E-03	 3.381E-01	 2.522E+00	 1.663E-01	 1.253E-02	 1.071E-01	 1.558E-02	 6.493E-05	-5.138E+00
  13.453	 1.662E+01	 3.509E+00	 2.866E+00	 2.183E+00	 4.545E+02	 3.162E+00	 4.933E-01	 1.640E+00	-1.325E+01	 1.387E+01	 3.919E+01	-1.147E-01	 2.892E-01	 2.518E+00	 1.659E-01	 8.659E-03	 1.080E-01	 1.567E-02	 8.610E-05	-5.104E+00
  13.465	 1.659E+01	 3.481E+00	 2.308E+00	 2.961E+00	 4.546E+02	 3.167E+00	 3.400E-01	-2.583E+01	-1.322E+01	 1.404E+01	 3.918E+01	-2.114E-01	 2.308E-01	 2.529E+00	 1.659E-01	 1.277E-02	 1.085E-01	 1.570E-02	 5.935E-05	-5.133E+00
  13.476	 1.657E+01	 3.332E+00	 1.340E+00	 3.244E+00	 4.547E+02	 3.169E+00	 2.163E-02	-2.114E+01	-1.319E+01	 1.420E+01	 3.918E+01	-2.538E-01	 1.911E-01	 2.568E+00	 1.656E-01	 1.519E-02	 1.088E-01	 1.573E-02	 3.775E-06	-5.189E+00
  13.488	 1.654E+01	 3.092E+00	 1.331E+00	 3.435E+00	 4.548E+02	 3.169E+00	 3.751E-02	 2.615E+01	-1.316E+01	 1.437E+01	 3.921E+01	-2.257E-01	 1.788E-01	 2.591E+00	 1.657E-01	 1.177E-02	 1.093E-01	 1.576E-02	 6.546E-06	-5.163E+00
  13.500	 1.652E+01	 2.802E+00	 2.399E+00	 3.514E+00	 4.548E+02	 3.172E+00	 4.217E-01	 2.415E+01	-1.314E+01	 1.454E+01	 3.925E+01	-1.361E-01	 1.922E-01	 2.585E+00	 1.654E-01	 7.060E-03	 1.097E-01	 1.580E-02	 7.360E-05	-5.105E+00
  13.511	 1.658E+01	 2.107E+00	 3.041E+00	 3.458E+00	 4.550E+02	 3.178E+00	 4.824E-01	-1.026E+01	-1.311E+01	 1.445E+01	 3.930E+01	-2.395E-02	 2.327E-01	 2.616E+00	 1.652E-01	 9.398E-03	 1.084E-01	 1.566E-02	 8.420E-05	-5.143E+00
  13.523	 1.664E+01	 1.182E+00	 3.293E+00	 3.286E+00	 4.550E+02	 3.182E+00	 3.500E-01	-4.773E+00	-1.308E+01	 1.434E+01	 3.933E+01	 5.994E-02	 2.846E-01	 2.641E+00	 1.651E-01	 1.291E-02	 1.070E-01	 1.552E-02	 6.109E-05	-5.204E+00
  13.534	 1.670E+01	 1.540E+00	 3.463E+00	 3.032E+00	 4.552E+02	 3.187E+00	 4.383E-01	 1.445E+01	-1.306E+01	 1.423E+01	 3.939E+01	 1.165E-01	 3.179E-01	 2.601E+00	 1.649E-01	 1.156E-02	 1.057E-01	 1.538E-02	 7.649E-05	-5.150E+00
  13.546	 1.677E+01	 2.596E+00	 3.513E+00	 2.703E+00	 4.552E+02	 3.193E+00	 4.850E-01	-7.011E+00	-1.303E+01	 1.412E+01	 3.944E+01	 1.556E-01	 3.605E-01	 2.605E+00	 1.646E-01	 1.262E-02	 1.043E-01	 1.524E-02	 8.466E-05	-5.144E+00
  13.558	 1.686E+01	 3.102E+00	 3.430E+00	 1.884E+00	 4.553E+02	 3.198E+00	 4.278E-01	 3.140E+00	-1.301E+01	 1.395E+01	 3.944E+01	 1.400E-01	 3.825E-01	 2.633E+00	 1.642E-01	 1.281E-02	 1.025E-01	 1.506E-02	 7.467E-05	-5.189E+00
  13.569	 1.697E+01	 3.340E+00	 3.235E+00	 1.098E+00	 4.554E+02	 3.203E+00	 5.493E-01	 1.388E+01	-1.298E+01	 1.374E+01	 3.942E+01	 5.941E-02	 3.645E-01	 2.607E+00	 1.642E-01	 1.286E-02	 1.005E-01	 1.485E-02	 9.586E-05	-5.165E+00
  13.581	 1.708E+01	 3.485E+00	 2.970E+00	 1.777E+00	 4.555E+02	 3.210E+00	 6.097E-01	-1.105E+01	-1.296E+01	 1.353E+01	 3.937E+01	-6.845E-02	 3.215E-01	 2.619E+00	 1.638E-01	 1.306E-02	 9.849E-02	 1.464E-02	 1.064E-04	-5.115E+00
  13.593	 1.719E+01	 3.505E+00	 2.565E+00	 2.769E+00	 4.556E+02	 3.216E+00	 2.572E-01	-3.956E+01	-1.293E+01	 1.331E+01	 3.935E+01	-2.016E-01	 2.559E-01	 2.677E+00	 1.639E-01	 1.756E-02	 9.647E-02	 1.443E-02	 4.489E-05	-5.179E+00
  13.604	 1.728E+01	 3.394E+00	 1.649E+00	 3.162E+00	 4.558E+02	 3.216E+00	-1.011E-01	-1.878E+01	-1.290E+01	 1.313E+01	 3.936E+01	-2.718E-01	 1.959E-01	 2.665E+00	 1.634E-01	 2.083E-02	 9.478E-02	 1.425E-02	-1.765E-05	-5.220E+00
  13.616	 1.735E+01	 3.179E+00	 1.118E+00	 3.384E+00	 4.559E+02	 3.214E+00	-1.677E-01	 6.021E+00	-1.287E+01	 1.301E+01	 3.939E+01	-2.601E-01	 1.617E-01	 2.676E+00	 1.635E-01	 2.199E-02	 9.351E-02	 1.412E-02	-2.927E-05	-5.166E+00
  13.627	 1.742E+01	 2.906E+00	 2.022E+00	 3.502E+00	 4.560E+02	 3.213E+00	-7.851E-02	-7.594E-01	-1.283E+01	 1.289E+01	 3.944E+01	-2.003E-01	 1.679E-01	 2.720E+00	 1.627E-01	 1.760E-02	 9.224E-02	 1.398E-02	-1.370E-05	-5.114E+00
  13.639	 1.750E+01	 2.392E+00	 2.909E+00	 3.491E+00	 4.561E+02	 3.211E+00	-3.197E-01	-3.678E+01	-1.280E+01	 1.277E+01	 3.951E+01	-8.650E-02	 2.043E-01	 2.663E+00	 1.629E-01	 1.789E-02	 9.094E-02	 1.383E-02	-5.580E-05	-5.161E+00
  13.651	 1.757E+01	 1.422E+00	 3.220E+00	 3.353E+00	 4.563E+02	 3.205E+00	-7.669E-01	-3.440E+01	-1.276E+01	 1.265E+01	 3.955E+01	 1.887E-02	 2.616E-01	 2.665E+00	 1.624E-01	 2.426E-02	 8.976E-02	 1.370E-02	-1.339E-04	-5.214E+00
  13.662	 1.758E+01	 1.247E+00	 3.422E+00	 3.118E+00	 4.564E+02	 3.195E+00	-9.498E-01	 6.605E+00	-1.272E+01	 1.266E+01	 3.961E+01	 9.992E-02	 3.228E-01	 2.755E+00	 1.622E-01	 2.645E-02	 8.943E-02	 1.366E-02	-1.658E-04	-5.184E+00
  13.674	 1.759E+01	 2.306E+00	 3.514E+00	 2.830E+00	 4.565E+02	 3.184E+00	-7.448E-01	 1.566E+01	-1.268E+01	 1.268E+01	 3.967E+01	 1.630E-01	 3.689E-01	 2.692E+00	 1.616E-01	 2.202E-02	 8.908E-02	 1.361E-02	-1.300E-04	-5.123E+00
  13.686	 1.760E+01	 3.012E+00	 3.470E+00	 2.187E+00	 4.567E+02	 3.176E+00	-7.357E-01	-1.292E+01	-1.264E+01	 1.269E+01	 3.968E+01	 1.639E-01	 3.985E-01	 2.631E+00	 1.617E-01	 1.910E-02	 8.876E-02	 1.357E-02	-1.284E-04	-5.143E+00
  13.697	 1.761E+01	 3.275E+00	 3.305E+00	 1.228E+00	 4.568E+02	 3.167E+00	-9.274E-01	-1.275E+01	-1.260E+01	 1.270E+01	 3.968E+01	 8.462E-02	 4.173E-01	 2.774E+00	 1.611E-01	 2.233E-02	 8.843E-02	 1.352E-02	-1.619E-04	-5.210E+00
  13.709	 1.764E+01	 3.454E+00	 3.055E+00	 1.453E+00	 4.570E+02	 3.156E+00	-8.736E-01	 2.243E+01	-1.256E+01	 1.244E+01	 3.963E+01	-2.079E-02	 3.978E-01	 2.792E+00	 1.609E-01	 2.440E-02	 8.782E-02	 1.345E-02	-1.525E-04	-5.176E+00
  13.720	 1.767E+01	 3.515E+00	 2.760E+00	 2.489E+00	 4.571E+02	 3.147E+00	-5.941E-01	 1.890E+01	-1.252E+01	 1.209E+01	 3.959E+01	-1.347E-01	 3.230E-01	 2.683E+00	 1.607E-01	 2.202E-02	 8.711E-02	 1.336E-02	-1.037E-04	-5.130E+00
  13.732	 1.771E+01	 3.441E+00	 1.955E+00	 3.082E+00	 4.573E+02	 3.141E+00	-5.053E-01	-5.211E-01	-1.247E+01	 1.172E+01	 3.959E+01	-2.385E-01	 2.461E-01	 2.773E+00	 1.603E-01	 2.025E-02	 8.638E-02	 1.327E-02	-8.819E-05	-5.175E+00
  13.744	 1.775E+01	 3.252E+00	 1.106E+00	 3.326E+00	 4.574E+02	 3.135E+00	-4.735E-01	 1.090E+01	-1.244E+01	 1.137E+01	 3.962E+01	-2.665E-01	 1.912E-01	 2.864E+00	 1.599E-01	 2.131E-02	 8.568E-02	 1.319E-02	-8.265E-05	-5.218E+00
  13.755	 1.780E+01	 2.988E+00	 1.703E+00	 3.480E+00	 4.576E+02	 3.131E+00	-2.417E-01	 2.357E+01	-1.240E+01	 1.109E+01	 3.968E+01	-2.219E-01	 1.566E-01	 2.747E+00	 1.595E-01	 2.222E-02	 8.478E-02	 1.308E-02	-4.219E-05	-5.140E+00
  13.767	 1.787E+01	 2.605E+00	 2.724E+00	 3.509E+00	 4.578E+02	 3.129E+00	-6.296E-02	 2.300E+00	-1.236E+01	 1.087E+01	 3.978E+01	-1.254E-01	 1.734E-01	 2.731E+00	 1.594E-01	 1.997E-02	 8.360E-02	 1.295E-02	-1.099E-05	-5.139E+00
  13.779	 1.794E+01	 1.704E+00	 3.147E+00	 3.404E+00	 4.580E+02	 3.128E+00	-1.627E-01	-1.392E+01	-1.233E+01	 1.067E+01	 3.984E+01	-2.472E-02	 2.424E-01	 2.841E+00	 1.585E-01	 2.208E-02	 8.250E-02	 1.282E-02	-2.839E-05	-5.241E+00
  13.790	 1.801E+01	 1.100E+00	 3.374E+00	 3.192E+00	 4.581E+02	 3.126E+00	-1.948E-01	 1.448E+01	-1.229E+01	 1.046E+01	 3.990E+01	 5.983E-02	 3.022E-01	 2.783E+00	 1.584E-01	 2.726E-02	 8.138E-02	 1.269E-02	-3.400E-05	-5.206E+00
  13.802	 1.807E+01	 1.971E+00	 3.500E+00	 2.919E+00	 4.583E+02	 3.125E+00	 8.850E-02	 2.598E+01	-1.225E+01	 1.030E+01	 3.998E+01	 1.279E-01	 3.478E-01	 2.709E+00	 1.578E-01	 2.407E-02	 8.038E-02	 1.257E-02	 1.545E-05	-5.112E+00
  13.814	 1.810E+01	 2.885E+00	 3.495E+00	 2.425E+00	 4.585E+02	 3.128E+00	 2.766E-01	 5.433E+00	-1.222E+01	 1.043E+01	 4.003E+01	 1.657E-01	 4.134E-01	 2.800E+00	 1.577E-01	 1.997E-02	 7.983E-02	 1.250E-02	 4.828E-05	-5.170E+00
  13.825	 1.812E+01	 3.211E+00	 3.360E+00	 1.453E+00	 4.586E+02	 3.131E+00	 2.869E-01	-1.967E+00	-1.219E+01	 1.055E+01	 4.002E+01	 1.341E-01	 4.455E-01	 2.873E+00	 1.568E-01	 2.260E-02	 7.930E-02	 1.243E-02	 5.008E-05	-5.245E+00
  13.837	 1.815E+01	 3.417E+00	 3.126E+00	 1.222E+00	 4.588E+02	 3.134E+00	 2.706E-01	 2.204E+00	-1.215E+01	 1.067E+01	 3.997E+01	 4.622E-02	 4.141E-01	 2.779E+00	 1.568E-01	 2.833E-02	 7.878E-02	 1.236E-02	 4.723E-05	-5.182E+00
  13.848	 1.817E+01	 3.512E+00	 2.849E+00	 2.236E+00	 4.590E+02	 3.138E+00	 4.075E-01	 2.281E+01	-1.212E+01	 1.080E+01	 3.993E+01	-9.347E-02	 3.565E-01	 2.750E+00	 1.561E-01	 2.483E-02	 7.825E-02	 1.229E-02	 7.112E-05	-5.148E+00
  13.860	 1.817E+01	 3.473E+00	 2.204E+00	 3.005E+00	 4.592E+02	 3.145E+00	 7.582E-01	 2.998E+01	-1.209E+01	 1.100E+01	 3.990E+01	-2.272E-01	 2.834E-01	 2.829E+00	 1.558E-01	 2.089E-02	 7.803E-02	 1.225E-02	 1.323E-04	-5.188E+00
  13.872	 1.817E+01	 3.309E+00	 1.235E+00	 3.271E+00	 4.593E+02	 3.155E+00	 1.004E+00	 9.521E+00	-1.206E+01	 1.122E+01	 3.992E+01	-2.775E-01	 1.945E-01	 2.816E+00	 1.551E-01	 2.291E-02	 7.788E-02	 1.222E-02	 1.752E-04	-5.200E+00
  13.883	 1.816E+01	 3.057E+00	 1.444E+00	 3.453E+00	 4.595E+02	 3.167E+00	 1.047E+00	 5.170E+00	-1.204E+01	 1.143E+01	 3.999E+01	-2.547E-01	 1.396E-01	 2.721E+00	 1.548E-01	 2.665E-02	 7.772E-02	 1.219E-02	 1.828E-04	-5.156E+00
  13.895	 1.816E+01	 2.760E+00	 2.486E+00	 3.516E+00	 4.597E+02	 3.180E+00	 1.220E+00	 2.594E+01	-1.201E+01	 1.165E+01	 4.008E+01	-1.957E-01	 1.494E-01	 2.762E+00	 1.543E-01	 2.299E-02	 7.758E-02	 1.216E-02	 2.130E-04	-5.162E+00
  13.907	 1.811E+01	 1.949E+00	 3.082E+00	 3.441E+00	 4.598E+02	 3.197E+00	 1.569E+00	 2.564E+01	-1.199E+01	 1.168E+01	 4.018E+01	-9.289E-02	 1.963E-01	 2.809E+00	 1.537E-01	 2.167E-02	 7.792E-02	 1.218E-02	 2.739E-04	-5.181E+00
  13.918	 1.804E+01	 1.102E+00	 3.328E+00	 3.250E+00	 4.600E+02	 3.216E+00	 1.731E+00	 3.420E+00	-1.197E+01	 1.154E+01	 4.026E+01	 2.221E-02	 2.678E-01	 2.729E+00	 1.534E-01	 2.463E-02	 7.866E-02	 1.224E-02	 3.021E-04	-5.166E+00
  13.930	 1.797E+01	 1.719E+00	 3.482E+00	 2.983E+00	 4.601E+02	 3.236E+00	 1.762E+00	 6.597E+00	-1.195E+01	 1.140E+01	 4.032E+01	 1.256E-01	 3.433E-01	 2.722E+00	 1.529E-01	 2.449E-02	 7.945E-02	 1.231E-02	 3.076E-04	-5.148E+00
  13.941	 1.790E+01	 2.706E+00	 3.511E+00	 2.619E+00	 4.603E+02	 3.257E+00	 1.946E+00	 2.378E+01	-1.194E+01	 1.127E+01	 4.035E+01	 1.870E-01	 4.058E-01	 2.784E+00	 1.525E-01	 2.048E-02	 8.022E-02	 1.237E-02	 3.397E-04	-5.165E+00
  13.953	 1.783E+01	 3.154E+00	 3.400E+00	 1.676E+00	 4.604E+02	 3.282E+00	 2.157E+00	 2.896E+00	-1.192E+01	 1.112E+01	 4.033E+01	 1.659E-01	 4.282E-01	 2.756E+00	 1.519E-01	 1.981E-02	 8.085E-02	 1.242E-02	 3.765E-04	-5.171E+00
  13.965	 1.782E+01	 3.380E+00	 3.184E+00	 1.109E+00	 4.606E+02	 3.306E+00	 2.054E+00	-9.330E+00	-1.191E+01	 1.098E+01	 4.029E+01	 7.745E-02	 4.125E-01	 2.742E+00	 1.518E-01	 2.596E-02	 8.089E-02	 1.241E-02	 3.584E-04	-5.171E+00
  13.976	 1.780E+01	 3.503E+00	 2.908E+00	 2.011E+00	 4.608E+02	 3.330E+00	 2.178E+00	 3.226E+01	-1.189E+01	 1.084E+01	 4.025E+01	-5.703E-02	 3.704E-01	 2.809E+00	 1.511E-01	 2.175E-02	 8.091E-02	 1.240E-02	 3.802E-04	-5.165E+00
  13.988	 1.778E+01	 3.495E+00	 2.426E+00	 2.885E+00	 4.609E+02	 3.358E+00	 2.631E+00	 3.507E+01	-1.188E+01	 1.071E+01	 4.023E+01	-1.840E-01	 2.924E-01	 2.783E+00	 1.508E-01	 1.626E-02	 8.095E-02	 1.239E-02	 4.592E-04	-5.146E+00
  14.000	 1.777E+01	 3.351E+00	 1.410E+00	 3.222E+00	 4.611E+02	 3.391E+00	 2.806E+00	-5.128E+00	-1.188E+01	 1.057E+01	 4.025E+01	-2.617E-01	 2.006E-01	 2.760E+00	 1.504E-01	 1.891E-02	 8.098E-02	 1.238E-02	 4.898E-04	-5.168E+00
[...]
  69.183	 1.838E+01	 1.139E+00	 3.309E+00	 3.267E+00	 4.518E+02	 3.151E+00	 1.041E+00	-2.746E+01	-8.256E+00	 9.492E+00	 3.881E+01	 6.400E-02	 3.177E-01	 2.807E+00	 1.760E-01	 1.710E-02	 8.426E-02	 1.357E-02	 1.817E-04	-5.160E+00
  69.192	 1.841E+01	 1.435E+00	 3.449E+00	 3.059E+00	 4.520E+02	 3.160E+00	 8.927E-01	-2.658E+00	-8.245E+00	 9.500E+00	 3.886E+01	 1.424E-01	 3.588E-01	 2.867E+00	 1.754E-01	 1.273E-02	 8.369E-02	 1.350E-02	 1.558E-04	-5.197E+00
  69.202	 1.843E+01	 2.295E+00	 3.511E+00	 2.832E+00	 4.522E+02	 3.168E+00	 9.538E-01	 1.043E+01	-8.235E+00	 9.436E+00	 3.889E+01	 1.789E-01	 3.929E-01	 2.872E+00	 1.749E-01	 1.243E-02	 8.331E-02	 1.344E-02	 1.665E-04	-5.199E+00
  69.212	 1.836E+01	 2.950E+00	 3.482E+00	 2.323E+00	 4.523E+02	 3.178E+00	 9.702E-01	-1.169E+01	-8.224E+00	 8.959E+00	 3.889E+01	 1.535E-01	 4.059E-01	 2.825E+00	 1.746E-01	 1.731E-02	 8.391E-02	 1.349E-02	 1.693E-04	-5.155E+00
  69.221	 1.830E+01	 3.194E+00	 3.369E+00	 1.519E+00	 4.525E+02	 3.186E+00	 7.341E-01	-3.449E+01	-8.214E+00	 8.503E+00	 3.890E+01	 7.620E-02	 3.912E-01	 2.828E+00	 1.741E-01	 1.889E-02	 8.447E-02	 1.353E-02	 1.281E-04	-5.140E+00
  69.231	 1.824E+01	 3.373E+00	 3.188E+00	 1.108E+00	 4.527E+02	 3.192E+00	 4.167E-01	-2.717E+01	-8.202E+00	 8.043E+00	 3.892E+01	-2.064E-02	 3.649E-01	 2.876E+00	 1.738E-01	 1.559E-02	 8.506E-02	 1.358E-02	 7.274E-05	-5.182E+00
  69.240	 1.818E+01	 3.488E+00	 2.955E+00	 1.823E+00	 4.529E+02	 3.195E+00	 2.485E-01	-9.228E+00	-8.187E+00	 7.553E+00	 3.893E+01	-1.147E-01	 3.270E-01	 2.894E+00	 1.731E-01	 1.344E-02	 8.567E-02	 1.363E-02	 4.338E-05	-5.217E+00
  69.250	 1.812E+01	 3.510E+00	 2.675E+00	 2.633E+00	 4.531E+02	 3.197E+00	 1.311E-01	-1.917E+01	-8.172E+00	 7.084E+00	 3.894E+01	-1.803E-01	 2.751E-01	 2.874E+00	 1.728E-01	 1.869E-02	 8.625E-02	 1.368E-02	 2.288E-05	-5.211E+00
  69.260	 1.813E+01	 3.446E+00	 2.013E+00	 3.066E+00	 4.532E+02	 3.197E+00	-1.040E-01	-2.699E+01	-8.157E+00	 6.929E+00	 3.895E+01	-2.240E-01	 2.294E-01	 2.841E+00	 1.722E-01	 2.134E-02	 8.599E-02	 1.363E-02	-1.816E-05	-5.170E+00
  69.269	 1.814E+01	 3.303E+00	 1.232E+00	 3.274E+00	 4.534E+02	 3.195E+00	-3.174E-01	-1.677E+01	-8.140E+00	 6.773E+00	 3.897E+01	-2.431E-01	 2.108E-01	 2.828E+00	 1.718E-01	 1.648E-02	 8.570E-02	 1.359E-02	-5.540E-05	-5.160E+00
  69.279	 1.814E+01	 3.102E+00	 1.294E+00	 3.428E+00	 4.536E+02	 3.191E+00	-4.181E-01	-3.342E+00	-8.122E+00	 6.616E+00	 3.900E+01	-2.278E-01	 2.118E-01	 2.829E+00	 1.714E-01	 1.167E-02	 8.544E-02	 1.355E-02	-7.297E-05	-5.181E+00
  69.288	 1.815E+01	 2.864E+00	 2.181E+00	 3.507E+00	 4.537E+02	 3.187E+00	-3.557E-01	 1.398E+01	-8.104E+00	 6.451E+00	 3.904E+01	-1.727E-01	 2.241E-01	 2.848E+00	 1.708E-01	 9.844E-03	 8.515E-02	 1.350E-02	-6.208E-05	-5.198E+00
  69.298	 1.816E+01	 2.450E+00	 2.869E+00	 3.494E+00	 4.539E+02	 3.184E+00	-2.523E-01	 2.339E+00	-8.089E+00	 6.296E+00	 3.909E+01	-8.703E-02	 2.427E-01	 2.804E+00	 1.703E-01	 1.267E-02	 8.486E-02	 1.345E-02	-4.404E-05	-5.170E+00
  69.308	 1.816E+01	 1.672E+00	 3.156E+00	 3.396E+00	 4.540E+02	 3.182E+00	-3.705E-01	-2.486E+01	-8.074E+00	 6.089E+00	 3.913E+01	 7.238E-03	 2.736E-01	 2.736E+00	 1.698E-01	 1.647E-02	 8.473E-02	 1.343E-02	-6.467E-05	-5.152E+00
  69.317	 1.815E+01	 1.096E+00	 3.345E+00	 3.226E+00	 4.541E+02	 3.177E+00	-6.070E-01	-1.747E+01	-8.058E+00	 5.866E+00	 3.919E+01	 9.068E-02	 3.135E-01	 2.750E+00	 1.695E-01	 1.525E-02	 8.461E-02	 1.340E-02	-1.059E-04	-5.173E+00
  69.327	 1.815E+01	 1.620E+00	 3.470E+00	 3.010E+00	 4.543E+02	 3.171E+00	-6.093E-01	 1.726E+01	-8.041E+00	 5.642E+00	 3.924E+01	 1.450E-01	 3.494E-01	 2.815E+00	 1.690E-01	 9.617E-03	 8.452E-02	 1.338E-02	-1.063E-04	-5.205E+00
  69.337	 1.814E+01	 2.512E+00	 3.513E+00	 2.750E+00	 4.544E+02	 3.166E+00	-3.238E-01	 3.294E+01	-8.025E+00	 5.408E+00	 3.927E+01	 1.553E-01	 3.710E-01	 2.791E+00	 1.684E-01	 8.001E-03	 8.441E-02	 1.335E-02	-5.651E-05	-5.196E+00
  69.346	 1.814E+01	 3.025E+00	 3.464E+00	 2.153E+00	 4.545E+02	 3.164E+00	-5.887E-02	 1.910E+01	-8.012E+00	 5.188E+00	 3.928E+01	 1.172E-01	 3.687E-01	 2.672E+00	 1.681E-01	 8.952E-03	 8.430E-02	 1.332E-02	-1.027E-05	-5.137E+00
  69.356	 1.811E+01	 3.241E+00	 3.333E+00	 1.344E+00	 4.547E+02	 3.164E+00	 1.996E-03	-6.696E+00	-8.002E+00	 5.028E+00	 3.929E+01	 4.619E-02	 3.609E-01	 2.679E+00	 1.677E-01	 1.036E-02	 8.453E-02	 1.334E-02	 3.483E-07	-5.124E+00
  69.365	 1.807E+01	 3.413E+00	 3.128E+00	 1.227E+00	 4.548E+02	 3.164E+00	-1.373E-01	-1.383E+01	-7.991E+00	 4.904E+00	 3.930E+01	-4.078E-02	 3.503E-01	 2.788E+00	 1.674E-01	 1.111E-02	 8.502E-02	 1.337E-02	-2.396E-05	-5.185E+00
  69.375	 1.803E+01	 3.501E+00	 2.901E+00	 2.041E+00	 4.549E+02	 3.162E+00	-1.435E-01	 1.431E+01	-7.980E+00	 4.785E+00	 3.930E+01	-1.119E-01	 3.205E-01	 2.789E+00	 1.667E-01	 9.079E-03	 8.547E-02	 1.341E-02	-2.505E-05	-5.228E+00
  69.385	 1.799E+01	 3.503E+00	 2.548E+00	 2.785E+00	 4.550E+02	 3.162E+00	 5.855E-02	 2.274E+01	-7.970E+00	 4.666E+00	 3.928E+01	-1.586E-01	 2.704E-01	 2.657E+00	 1.665E-01	 9.792E-03	 8.596E-02	 1.345E-02	 1.022E-05	-5.181E+00
  69.394	 1.794E+01	 3.418E+00	 1.805E+00	 3.122E+00	 4.551E+02	 3.163E+00	 2.115E-01	 8.453E+00	-7.963E+00	 4.550E+00	 3.927E+01	-1.942E-01	 2.306E-01	 2.614E+00	 1.660E-01	 1.069E-02	 8.643E-02	 1.349E-02	 3.691E-05	-5.122E+00
  69.404	 1.788E+01	 3.258E+00	 1.124E+00	 3.319E+00	 4.552E+02	 3.165E+00	 2.531E-01	 2.917E+00	-7.957E+00	 4.453E+00	 3.927E+01	-2.150E-01	 2.139E-01	 2.693E+00	 1.658E-01	 8.554E-03	 8.731E-02	 1.357E-02	 4.418E-05	-5.133E+00
  69.413	 1.776E+01	 3.034E+00	 1.535E+00	 3.461E+00	 4.553E+02	 3.168E+00	 3.039E-01	 8.050E+00	-7.952E+00	 4.385E+00	 3.928E+01	-2.093E-01	 2.065E-01	 2.712E+00	 1.653E-01	 5.196E-03	 8.896E-02	 1.372E-02	 5.304E-05	-5.179E+00
  69.423	 1.765E+01	 2.801E+00	 2.398E+00	 3.513E+00	 4.554E+02	 3.171E+00	 3.809E-01	 5.984E+00	-7.949E+00	 4.322E+00	 3.931E+01	-1.709E-01	 2.053E-01	 2.657E+00	 1.650E-01	 8.274E-03	 9.056E-02	 1.388E-02	 6.649E-05	-5.190E+00
  69.433	 1.753E+01	 2.266E+00	 2.980E+00	 3.477E+00	 4.555E+02	 3.175E+00	 4.095E-01	 3.008E-01	-7.947E+00	 4.259E+00	 3.937E+01	-9.995E-02	 2.176E-01	 2.615E+00	 1.647E-01	 1.118E-02	 9.222E-02	 1.404E-02	 7.148E-05	-5.147E+00
  69.442	 1.742E+01	 1.451E+00	 3.213E+00	 3.358E+00	 4.555E+02	 3.179E+00	 3.867E-01	-4.890E+00	-7.947E+00	 4.197E+00	 3.943E+01	-8.286E-03	 2.522E-01	 2.642E+00	 1.643E-01	 1.021E-02	 9.392E-02	 1.420E-02	 6.749E-05	-5.128E+00
  69.452	 1.732E+01	 1.136E+00	 3.387E+00	 3.171E+00	 4.556E+02	 3.182E+00	 3.287E-01	-4.902E+00	-7.947E+00	 4.198E+00	 3.949E+01	 8.648E-02	 2.925E-01	 2.663E+00	 1.643E-01	 8.634E-03	 9.536E-02	 1.433E-02	 5.737E-05	-5.150E+00
  69.462	 1.732E+01	 1.914E+00	 3.495E+00	 2.935E+00	 4.557E+02	 3.186E+00	 3.846E-01	 1.799E+01	-7.949E+00	 4.550E+00	 3.953E+01	 1.526E-01	 3.322E-01	 2.686E+00	 1.638E-01	 5.110E-03	 9.508E-02	 1.430E-02	 6.712E-05	-5.183E+00
  69.471	 1.732E+01	 2.703E+00	 3.508E+00	 2.625E+00	 4.558E+02	 3.190E+00	 5.857E-01	 1.738E+01	-7.953E+00	 4.888E+00	 3.954E+01	 1.641E-01	 3.587E-01	 2.677E+00	 1.637E-01	 7.977E-03	 9.481E-02	 1.426E-02	 1.022E-04	-5.158E+00
  69.481	 1.732E+01	 3.091E+00	 3.435E+00	 1.922E+00	 4.559E+02	 3.196E+00	 6.231E-01	-1.058E+01	-7.959E+00	 5.228E+00	 3.953E+01	 1.226E-01	 3.623E-01	 2.634E+00	 1.632E-01	 1.227E-02	 9.456E-02	 1.422E-02	 1.087E-04	-5.115E+00
  69.490	 1.732E+01	 3.305E+00	 3.273E+00	 1.153E+00	 4.560E+02	 3.202E+00	 4.341E-01	-2.093E+01	-7.966E+00	 5.586E+00	 3.952E+01	 4.737E-02	 3.489E-01	 2.618E+00	 1.630E-01	 1.165E-02	 9.429E-02	 1.419E-02	 7.577E-05	-5.121E+00
  69.500	 1.732E+01	 3.448E+00	 3.064E+00	 1.427E+00	 4.561E+02	 3.205E+00	 3.163E-01	-9.790E-01	-7.973E+00	 5.926E+00	 3.951E+01	-3.653E-02	 3.252E-01	 2.620E+00	 1.628E-01	 7.724E-03	 9.404E-02	 1.415E-02	 5.520E-05	-5.148E+00
  69.510	 1.715E+01	 3.511E+00	 2.836E+00	 2.293E+00	 4.561E+02	 3.208E+00	 3.682E-01	 4.815E+00	-7.980E+00	 6.112E+00	 3.949E+01	-1.163E-01	 2.844E-01	 2.620E+00	 1.623E-01	 1.030E-02	 9.665E-02	 1.441E-02	 6.426E-05	-5.159E+00
  69.519	 1.699E+01	 3.486E+00	 2.360E+00	 2.931E+00	 4.562E+02	 3.212E+00	 2.895E-01	-2.376E+01	-7.989E+00	 6.303E+00	 3.947E+01	-1.748E-01	 2.268E-01	 2.547E+00	 1.621E-01	 1.716E-02	 9.936E-02	 1.466E-02	 5.053E-05	-5.120E+00
  69.529	 1.682E+01	 3.377E+00	 1.557E+00	 3.187E+00	 4.562E+02	 3.213E+00	-8.308E-02	-5.035E+01	-7.997E+00	 6.497E+00	 3.945E+01	-2.208E-01	 1.850E-01	 2.494E+00	 1.616E-01	 1.999E-02	 1.022E-01	 1.493E-02	-1.450E-05	-5.101E+00
  69.538	 1.665E+01	 3.186E+00	 1.119E+00	 3.377E+00	 4.563E+02	 3.210E+00	-5.701E-01	-3.902E+01	-8.003E+00	 6.702E+00	 3.946E+01	-2.441E-01	 1.722E-01	 2.498E+00	 1.617E-01	 1.635E-02	 1.053E-01	 1.523E-02	-9.951E-05	-5.142E+00
  69.548	 1.648E+01	 2.964E+00	 1.804E+00	 3.487E+00	 4.563E+02	 3.203E+00	-7.332E-01	 5.152E+00	-8.006E+00	 6.899E+00	 3.949E+01	-2.285E-01	 1.778E-01	 2.521E+00	 1.612E-01	 9.956E-03	 1.084E-01	 1.551E-02	-1.280E-04	-5.163E+00
  69.558	 1.640E+01	 2.687E+00	 2.623E+00	 3.512E+00	 4.563E+02	 3.197E+00	-6.174E-01	 8.238E+00	-8.010E+00	 6.635E+00	 3.953E+01	-1.538E-01	 1.942E-01	 2.495E+00	 1.612E-01	 1.118E-02	 1.100E-01	 1.567E-02	-1.078E-04	-5.120E+00
  69.567	 1.634E+01	 2.028E+00	 3.064E+00	 3.448E+00	 4.563E+02	 3.191E+00	-7.254E-01	-3.322E+01	-8.016E+00	 6.245E+00	 3.957E+01	-4.495E-02	 2.304E-01	 2.459E+00	 1.609E-01	 1.721E-02	 1.113E-01	 1.578E-02	-1.266E-04	-5.069E+00
  69.577	 1.628E+01	 1.244E+00	 3.274E+00	 3.305E+00	 4.563E+02	 3.182E+00	-1.160E+00	-4.993E+01	-8.021E+00	 5.851E+00	 3.959E+01	 5.922E-02	 2.804E-01	 2.516E+00	 1.608E-01	 1.785E-02	 1.126E-01	 1.590E-02	-2.024E-04	-5.099E+00
  69.587	 1.622E+01	 1.339E+00	 3.435E+00	 3.091E+00	 4.564E+02	 3.168E+00	-1.573E+00	-3.046E+01	-8.023E+00	 5.431E+00	 3.960E+01	 1.358E-01	 3.194E-01	 2.581E+00	 1.608E-01	 1.635E-02	 1.140E-01	 1.603E-02	-2.746E-04	-5.158E+00
  69.596	 1.617E+01	 2.191E+00	 3.508E+00	 2.863E+00	 4.564E+02	 3.152E+00	-1.807E+00	-2.306E+01	-8.024E+00	 5.027E+00	 3.962E+01	 1.655E-01	 3.464E-01	 2.592E+00	 1.606E-01	 1.776E-02	 1.154E-01	 1.615E-02	-3.154E-04	-5.168E+00
  69.606	 1.619E+01	 2.877E+00	 3.494E+00	 2.443E+00	 4.565E+02	 3.133E+00	-2.072E+00	-3.476E+01	-8.024E+00	 4.658E+00	 3.961E+01	 1.505E-01	 3.565E-01	 2.557E+00	 1.607E-01	 1.988E-02	 1.152E-01	 1.613E-02	-3.616E-04	-5.126E+00
  69.615	 1.625E+01	 3.172E+00	 3.386E+00	 1.615E+00	 4.565E+02	 3.111E+00	-2.502E+00	-4.792E+01	-8.023E+00	 4.301E+00	 3.960E+01	 8.968E-02	 3.377E-01	 2.552E+00	 1.603E-01	 1.935E-02	 1.139E-01	 1.600E-02	-4.367E-04	-5.113E+00
  69.625	 1.631E+01	 3.359E+00	 3.211E+00	 1.103E+00	 4.565E+02	 3.085E+00	-2.917E+00	-3.505E+01	-8.019E+00	 3.962E+00	 3.960E+01	 9.582E-03	 3.090E-01	 2.562E+00	 1.603E-01	 1.652E-02	 1.126E-01	 1.587E-02	-5.092E-04	-5.149E+00
  69.635	 1.638E+01	 3.478E+00	 2.991E+00	 1.698E+00	 4.566E+02	 3.056E+00	-3.118E+00	-8.375E+00	-8.015E+00	 3.625E+00	 3.960E+01	-8.007E-02	 2.848E-01	 2.559E+00	 1.602E-01	 1.302E-02	 1.113E-01	 1.575E-02	-5.442E-04	-5.164E+00
  69.644	 1.644E+01	 3.513E+00	 2.737E+00	 2.540E+00	 4.566E+02	 3.026E+00	-3.170E+00	-9.417E+00	-8.011E+00	 3.291E+00	 3.958E+01	-1.592E-01	 2.536E-01	 2.559E+00	 1.602E-01	 1.382E-02	 1.100E-01	 1.563E-02	-5.533E-04	-5.146E+00
  69.654	 1.648E+01	 3.460E+00	 2.123E+00	 3.037E+00	 4.567E+02	 2.995E+00	-3.377E+00	-3.339E+01	-8.007E+00	 3.071E+00	 3.957E+01	-2.088E-01	 2.145E-01	 2.542E+00	 1.600E-01	 1.682E-02	 1.093E-01	 1.555E-02	-2.024E-03	-5.117E+00
  69.663	 1.647E+01	 3.316E+00	 1.282E+00	 3.261E+00	 4.567E+02	 2.960E+00	-3.698E+00	-2.499E+01	-8.002E+00	 3.040E+00	 3.955E+01	-2.295E-01	 1.972E-01	 2.559E+00	 1.599E-01	 1.549E-02	 1.094E-01	 1.556E-02	-1.260E-02	-5.133E+00
  69.673	 1.646E+01	 3.117E+00	 1.260E+00	 3.421E+00	 4.567E+02	 2.924E+00	-3.809E+00	 2.583E+00	-7.996E+00	 3.009E+00	 3.955E+01	-2.198E-01	 2.016E-01	 2.592E+00	 1.599E-01	 1.277E-02	 1.095E-01	 1.556E-02	-2.326E-02	-5.166E+00
  69.683	 1.645E+01	 2.889E+00	 2.091E+00	 3.504E+00	 4.568E+02	 2.888E+00	-3.667E+00	 2.504E+01	-7.991E+00	 2.980E+00	 3.956E+01	-1.826E-01	 2.092E-01	 2.621E+00	 1.598E-01	 1.195E-02	 1.096E-01	 1.557E-02	-3.382E-02	-5.191E+00
  69.692	 1.644E+01	 2.514E+00	 2.819E+00	 3.501E+00	 4.568E+02	 2.855E+00	-3.392E+00	 3.102E+01	-7.988E+00	 2.953E+00	 3.960E+01	-1.088E-01	 2.156E-01	 2.583E+00	 1.598E-01	 1.303E-02	 1.097E-01	 1.557E-02	-4.374E-02	-5.167E+00
  69.702	 1.643E+01	 1.754E+00	 3.136E+00	 3.410E+00	 4.569E+02	 2.824E+00	-3.103E+00	 3.025E+01	-7.988E+00	 2.940E+00	 3.965E+01	-1.642E-02	 2.403E-01	 2.532E+00	 1.595E-01	 1.311E-02	 1.098E-01	 1.557E-02	-5.284E-02	-5.131E+00
  69.712	 1.641E+01	 1.103E+00	 3.340E+00	 3.234E+00	 4.569E+02	 2.794E+00	-2.790E+00	 3.281E+01	-7.991E+00	 2.998E+00	 3.969E+01	 7.430E-02	 2.874E-01	 2.574E+00	 1.595E-01	 1.201E-02	 1.099E-01	 1.559E-02	-6.153E-02	-5.145E+00
  69.721	 1.639E+01	 1.598E+00	 3.468E+00	 3.017E+00	 4.569E+02	 2.769E+00	-2.429E+00	 4.503E+01	-7.997E+00	 3.055E+00	 3.973E+01	 1.377E-01	 3.267E-01	 2.634E+00	 1.593E-01	 1.139E-02	 1.101E-01	 1.560E-02	-6.885E-02	-5.186E+00
  69.731	 1.638E+01	 2.457E+00	 3.514E+00	 2.777E+00	 4.570E+02	 2.748E+00	-1.975E+00	 4.621E+01	-8.006E+00	 3.116E+00	 3.974E+01	 1.702E-01	 3.521E-01	 2.587E+00	 1.592E-01	 1.482E-02	 1.103E-01	 1.561E-02	-7.498E-02	-5.190E+00
  69.740	 1.636E+01	 3.022E+00	 3.466E+00	 2.167E+00	 4.570E+02	 2.731E+00	-1.614E+00	 2.465E+01	-8.019E+00	 3.183E+00	 3.973E+01	 1.529E-01	 3.597E-01	 2.467E+00	 1.590E-01	 2.003E-02	 1.104E-01	 1.562E-02	-8.019E-02	-5.137E+00
  69.750	 1.635E+01	 3.241E+00	 3.336E+00	 1.354E+00	 4.570E+02	 2.716E+00	-1.448E+00	 1.319E+01	-8.033E+00	 3.249E+00	 3.971E+01	 9.460E-02	 3.481E-01	 2.475E+00	 1.589E-01	 2.092E-02	 1.106E-01	 1.563E-02	-8.445E-02	-5.128E+00
  69.760	 1.631E+01	 3.408E+00	 3.141E+00	 1.197E+00	 4.571E+02	 2.703E+00	-1.310E+00	 1.880E+01	-8.048E+00	 3.093E+00	 3.969E+01	 8.544E-03	 3.227E-01	 2.572E+00	 1.588E-01	 1.915E-02	 1.114E-01	 1.570E-02	-8.832E-02	-5.172E+00
  69.769	 1.627E+01	 3.501E+00	 2.914E+00	 1.995E+00	 4.571E+02	 2.692E+00	-1.045E+00	 3.555E+01	-8.065E+00	 2.938E+00	 3.965E+01	-8.499E-02	 2.782E-01	 2.598E+00	 1.587E-01	 1.903E-02	 1.122E-01	 1.577E-02	-9.164E-02	-5.205E+00
  69.779	 1.623E+01	 3.506E+00	 2.576E+00	 2.759E+00	 4.571E+02	 2.683E+00	-7.204E-01	 2.747E+01	-8.084E+00	 2.784E+00	 3.962E+01	-1.692E-01	 2.143E-01	 2.499E+00	 1.586E-01	 2.414E-02	 1.130E-01	 1.585E-02	-9.405E-02	-5.153E+00
  69.788	 1.619E+01	 3.417E+00	 1.799E+00	 3.126E+00	 4.571E+02	 2.677E+00	-6.033E-01	-6.229E+00	-8.106E+00	 2.624E+00	 3.960E+01	-2.380E-01	 1.604E-01	 2.443E+00	 1.585E-01	 2.822E-02	 1.139E-01	 1.592E-02	-9.591E-02	-5.095E+00
  69.798	 1.616E+01	 3.254E+00	 1.124E+00	 3.324E+00	 4.571E+02	 2.671E+00	-8.022E-01	-3.224E+01	-8.127E+00	 2.470E+00	 3.962E+01	-2.791E-01	 1.438E-01	 2.534E+00	 1.584E-01	 3.043E-02	 1.147E-01	 1.600E-02	-9.787E-02	-5.143E+00
  69.808	 1.615E+01	 3.039E+00	 1.510E+00	 3.460E+00	 4.572E+02	 2.662E+00	-1.088E+00	-1.932E+01	-8.146E+00	 2.674E+00	 3.964E+01	-2.815E-01	 1.525E-01	 2.603E+00	 1.583E-01	 3.054E-02	 1.146E-01	 1.599E-02	-1.006E-01	-5.221E+00
  69.817	 1.616E+01	 2.808E+00	 2.376E+00	 3.515E+00	 4.572E+02	 2.651E+00	-1.102E+00	 1.251E+01	-8.163E+00	 2.974E+00	 3.969E+01	-2.203E-01	 1.737E-01	 2.517E+00	 1.583E-01	 3.078E-02	 1.143E-01	 1.595E-02	-1.038E-01	-5.204E+00
  69.827	 1.617E+01	 2.284E+00	 2.973E+00	 3.480E+00	 4.572E+02	 2.641E+00	-9.925E-01	 3.716E+00	-8.180E+00	 3.273E+00	 3.975E+01	-9.964E-02	 2.098E-01	 2.395E+00	 1.581E-01	 3.358E-02	 1.139E-01	 1.592E-02	-1.067E-01	-5.107E+00
  69.837	 1.617E+01	 1.431E+00	 3.221E+00	 3.352E+00	 4.572E+02	 2.631E+00	-1.066E+00	-1.532E+01	-8.199E+00	 3.588E+00	 3.978E+01	 4.709E-02	 2.760E-01	 2.427E+00	 1.580E-01	 3.162E-02	 1.136E-01	 1.588E-02	-1.097E-01	-5.090E+00
  69.846	 1.618E+01	 1.155E+00	 3.394E+00	 3.163E+00	 4.572E+02	 2.620E+00	-1.216E+00	-1.278E+01	-8.216E+00	 3.886E+00	 3.977E+01	 1.581E-01	 3.402E-01	 2.503E+00	 1.578E-01	 2.990E-02	 1.132E-01	 1.585E-02	-1.129E-01	-5.157E+00
  69.856	 1.616E+01	 1.904E+00	 3.495E+00	 2.936E+00	 4.571E+02	 2.608E+00	-1.265E+00	 1.409E+00	-8.231E+00	 4.241E+00	 3.976E+01	 2.173E-01	 3.766E-01	 2.487E+00	 1.580E-01	 3.268E-02	 1.134E-01	 1.587E-02	-1.165E-01	-5.195E+00
  69.865	 1.613E+01	 2.730E+00	 3.508E+00	 2.603E+00	 4.571E+02	 2.596E+00	-1.263E+00	-4.699E+00	-8.247E+00	 4.660E+00	 3.972E+01	 2.072E-01	 3.838E-01	 2.392E+00	 1.579E-01	 3.827E-02	 1.141E-01	 1.593E-02	-1.202E-01	-5.148E+00
  69.875	 1.609E+01	 3.104E+00	 3.430E+00	 1.887E+00	 4.571E+02	 2.583E+00	-1.326E+00	-3.905E+00	-8.262E+00	 5.060E+00	 3.969E+01	 1.484E-01	 3.653E-01	 2.356E+00	 1.578E-01	 3.542E-02	 1.147E-01	 1.599E-02	-1.239E-01	-5.111E+00
  69.885	 1.606E+01	 3.306E+00	 3.274E+00	 1.161E+00	 4.571E+02	 2.571E+00	-1.270E+00	 1.650E+01	-8.276E+00	 5.460E+00	 3.967E+01	 6.388E-02	 3.288E-01	 2.409E+00	 1.576E-01	 2.885E-02	 1.154E-01	 1.605E-02	-1.276E-01	-5.145E+00
  69.894	 1.603E+01	 3.450E+00	 3.064E+00	 1.426E+00	 4.570E+02	 2.560E+00	-1.031E+00	 3.264E+01	-8.291E+00	 5.864E+00	 3.965E+01	-2.822E-02	 2.755E-01	 2.425E+00	 1.578E-01	 2.856E-02	 1.160E-01	 1.611E-02	-1.308E-01	-5.173E+00
  69.904	 1.600E+01	 3.513E+00	 2.836E+00	 2.291E+00	 4.570E+02	 2.551E+00	-7.001E-01	 3.252E+01	-8.307E+00	 6.185E+00	 3.963E+01	-1.236E-01	 2.155E-01	 2.391E+00	 1.579E-01	 3.116E-02	 1.167E-01	 1.617E-02	-1.332E-01	-5.149E+00
  69.913	 1.596E+01	 3.484E+00	 2.325E+00	 2.953E+00	 4.570E+02	 2.546E+00	-4.690E-01	 1.365E+01	-8.327E+00	 6.372E+00	 3.961E+01	-2.107E-01	 1.626E-01	 2.369E+00	 1.579E-01	 3.328E-02	 1.175E-01	 1.625E-02	-1.348E-01	-5.121E+00
  69.923	 1.592E+01	 3.369E+00	 1.516E+00	 3.200E+00	 4.570E+02	 2.542E+00	-3.462E-01	 1.734E+01	-8.346E+00	 6.551E+00	 3.961E+01	-2.700E-01	 1.380E-01	 2.398E+00	 1.578E-01	 3.056E-02	 1.182E-01	 1.632E-02	-1.360E-01	-5.151E+00
  69.933	 1.589E+01	 3.185E+00	 1.120E+00	 3.379E+00	 4.570E+02	 2.540E+00	-9.895E-02	 3.452E+01	-8.366E+00	 6.731E+00	 3.961E+01	-2.863E-01	 1.334E-01	 2.439E+00	 1.579E-01	 2.906E-02	 1.190E-01	 1.639E-02	-1.366E-01	-5.188E+00
  69.942	 1.586E+01	 2.962E+00	 1.806E+00	 3.488E+00	 4.569E+02	 2.540E+00	 2.859E-01	 4.257E+01	-8.388E+00	 6.914E+00	 3.963E+01	-2.465E-01	 1.487E-01	 2.448E+00	 1.581E-01	 2.989E-02	 1.197E-01	 1.646E-02	-1.363E-01	-5.175E+00
  69.952	 1.583E+01	 2.683E+00	 2.626E+00	 3.513E+00	 4.569E+02	 2.545E+00	 6.194E-01	 2.584E+01	-8.413E+00	 7.136E+00	 3.967E+01	-1.598E-01	 1.802E-01	 2.418E+00	 1.581E-01	 3.239E-02	 1.203E-01	 1.652E-02	-1.349E-01	-5.140E+00
  69.962	 1.585E+01	 1.979E+00	 3.079E+00	 3.443E+00	 4.569E+02	 2.552E+00	 8.255E-01	 1.852E+01	-8.441E+00	 7.569E+00	 3.971E+01	-4.660E-02	 2.294E-01	 2.384E+00	 1.580E-01	 3.060E-02	 1.200E-01	 1.649E-02	-1.327E-01	-5.125E+00
  69.971	 1.586E+01	 1.211E+00	 3.287E+00	 3.294E+00	 4.569E+02	 2.561E+00	 9.858E-01	 1.136E+01	-8.468E+00	 7.982E+00	 3.973E+01	 6.013E-02	 2.931E-01	 2.402E+00	 1.580E-01	 3.084E-02	 1.198E-01	 1.647E-02	-1.301E-01	-5.144E+00
  69.981	 1.588E+01	 1.345E+00	 3.438E+00	 3.088E+00	 4.569E+02	 2.570E+00	 1.006E+00	-4.054E+00	-8.496E+00	 8.394E+00	 3.974E+01	 1.549E-01	 3.519E-01	 2.427E+00	 1.582E-01	 3.512E-02	 1.195E-01	 1.644E-02	-1.273E-01	-5.172E+00
  69.990	 1.590E+01	 2.244E+00	 3.512E+00	 2.847E+00	 4.569E+02	 2.580E+00	 9.726E-01	-1.710E+00	-8.525E+00	 8.827E+00	 3.972E+01	 2.220E-01	 3.869E-01	 2.420E+00	 1.583E-01	 3.642E-02	 1.192E-01	 1.642E-02	-1.244E-01	-5.187E+00
  70.000	 1.592E+01	 2.907E+00	 3.492E+00	 2.399E+00	 4.569E+02	 2.590E+00	 1.001E+00	 1.063E+01	-8.551E+00	 9.237E+00	 3.969E+01	 2.260E-01	 3.897E-01	 2.361E+00	 1.583E-01	 3.598E-02	 1.189E-01	 1.640E-02	-1.216E-01	-5.158E+00
