
This summary information was generated by ElastoDyn (v1.01.07a-bjj, 30-Sep-2014) on 06-Oct-2014 at 18:07:56.


Turbine features:

            Upwind, three-bladed rotor with rigid hub.
            The model has 22 of 24 DOFs active (enabled) at start-up.
 Enabled    Platform horizontal surge translation DOF 
 Enabled    Platform horizontal sway translation DOF 
 Enabled    Platform vertical heave translation DOF 
 Enabled    Platform roll tilt rotation DOF 
 Enabled    Platform pitch tilt rotation DOF 
 Enabled    Platform yaw rotation DOF 
 Enabled    1st tower fore-aft bending mode DOF 
 Enabled    1st tower side-to-side bending mode DOF 
 Enabled    2nd tower fore-aft bending mode DOF 
 Enabled    2nd tower side-to-side bending mode DOF 
 Enabled    Nacelle yaw DOF 
 Disabled   Rotor-furl DOF 
 Enabled    Variable speed generator DOF 
 Enabled    Drivetrain rotational-flexibility DOF 
 Disabled   Tail-furl DOF 
 Enabled    1st flapwise bending-mode DOF of blade 1 
 Enabled    1st edgewise bending-mode DOF of blade 1 
 Enabled    2nd flapwise bending-mode DOF of blade 1 
 Enabled    1st flapwise bending-mode DOF of blade 2 
 Enabled    1st edgewise bending-mode DOF of blade 2 
 Enabled    2nd flapwise bending-mode DOF of blade 2 
 Enabled    1st flapwise bending-mode DOF of blade 3 
 Enabled    1st edgewise bending-mode DOF of blade 3 
 Enabled    2nd flapwise bending-mode DOF of blade 3 


Time steps:

    Structural            (s)        0.01250000


Some calculated parameters:

    Hub-Height            (m)            90.000
    Flexible Tower Length (m)            77.600
    Flexible Blade Length (m)            61.500


Rotor mass properties:

    Rotor Mass            (kg)       110000.234
    Rotor Inertia         (kg-m^2) 38759228.000
                                        Blade 1      Blade 2      Blade 3
                                        -------      -------      -------
    Mass                  (kg)        17740.082    17740.082    17740.082
    Second Mass Moment    (kg-m^2) 11776047.000 11776047.000 11776047.000
    First Mass Moment     (kg-m)     363231.312   363231.312   363231.312
    Center of Mass        (m)            20.475       20.475       20.475


Additional mass properties:

    Tower-top Mass        (kg)       350000.250
    Tower Mass            (kg)       249718.000
    Platform Mass         (kg)      3852180.000
    Mass Incl. Platform   (kg)      4451898.000


Interpolated tower properties:

Node  TwFract   HNodes  DHNodes  TMassDen    FAStiff    SSStiff
 (-)      (-)      (m)      (m)    (kg/m)     (Nm^2)     (Nm^2)
   1    0.025    1.940    3.880  4586.570  5.823E+11  5.823E+11
   2    0.075    5.820    3.880  4425.710  5.392E+11  5.392E+11
   3    0.125    9.700    3.880  4267.650  4.985E+11  4.985E+11
   4    0.175   13.580    3.880  4112.390  4.601E+11  4.601E+11
   5    0.225   17.460    3.880  3959.930  4.239E+11  4.239E+11
   6    0.275   21.340    3.880  3810.270  3.900E+11  3.900E+11
   7    0.325   25.220    3.880  3663.410  3.581E+11  3.581E+11
   8    0.375   29.100    3.880  3519.350  3.282E+11  3.282E+11
   9    0.425   32.980    3.880  3378.090  3.002E+11  3.002E+11
  10    0.475   36.860    3.880  3239.630  2.740E+11  2.740E+11
  11    0.525   40.740    3.880  3103.972  2.495E+11  2.495E+11
  12    0.575   44.620    3.880  2971.117  2.267E+11  2.267E+11
  13    0.625   48.500    3.880  2841.062  2.055E+11  2.055E+11
  14    0.675   52.380    3.880  2713.807  1.859E+11  1.859E+11
  15    0.725   56.260    3.880  2589.355  1.676E+11  1.676E+11
  16    0.775   60.140    3.880  2467.705  1.507E+11  1.507E+11
  17    0.825   64.020    3.880  2348.852  1.351E+11  1.351E+11
  18    0.875   67.900    3.880  2232.797  1.208E+11  1.208E+11
  19    0.925   71.780    3.880  2119.545  1.076E+11  1.076E+11
  20    0.975   75.660    3.880  2009.095  9.552E+10  9.552E+10


Interpolated blade 1 properties:

Node  BlFract   RNodes  DRNodes PitchAxis  StrcTwst  BMassDen    FlpStff    EdgStff
 (-)      (-)      (m)      (m)       (-)     (deg)    (kg/m)     (Nm^2)     (Nm^2)
   1    0.022    2.867    2.733     0.251    13.308   802.720  1.910E+10  1.955E+10
   2    0.067    5.600    2.733     0.278    13.308   634.770  1.123E+10  1.535E+10
   3    0.111    8.333    2.733     0.312    13.308   427.782  5.815E+09  8.460E+09
   4    0.167   11.750    4.100     0.354    13.302   445.160  4.654E+09  7.173E+09
   5    0.233   15.850    4.100     0.375    11.488   368.301  2.542E+09  5.034E+09
   6    0.300   19.950    4.100     0.375    10.162   353.510  2.022E+09  4.469E+09
   7    0.367   24.050    4.100     0.375     9.009   335.102  1.549E+09  3.953E+09
   8    0.433   28.150    4.100     0.375     7.795   306.314  1.051E+09  3.378E+09
   9    0.500   32.250    4.100     0.375     6.549   272.375  6.410E+08  2.685E+09
  10    0.567   36.350    4.100     0.375     5.359   245.485  3.782E+08  2.170E+09
  11    0.633   40.450    4.100     0.375     4.189   201.195  2.151E+08  1.486E+09
  12    0.700   44.550    4.100     0.375     3.144   167.837  1.180E+08  1.114E+09
  13    0.767   48.650    4.100     0.375     2.319   140.582  8.396E+07  7.559E+08
  14    0.833   52.750    4.100     0.375     1.526   107.471  5.498E+07  4.849E+08
  15    0.889   56.167    2.733     0.375     0.863    90.806  3.717E+07  3.758E+08
  16    0.933   58.900    2.733     0.375     0.370    70.842  2.545E+07  2.735E+08
  17    0.978   61.633    2.733     0.375     0.106    48.355  7.887E+06  8.728E+07


Interpolated blade 2 properties:

Node  BlFract   RNodes  DRNodes PitchAxis  StrcTwst  BMassDen    FlpStff    EdgStff
 (-)      (-)      (m)      (m)       (-)     (deg)    (kg/m)     (Nm^2)     (Nm^2)
   1    0.022    2.867    2.733     0.251    13.308   802.720  1.910E+10  1.955E+10
   2    0.067    5.600    2.733     0.278    13.308   634.770  1.123E+10  1.535E+10
   3    0.111    8.333    2.733     0.312    13.308   427.782  5.815E+09  8.460E+09
   4    0.167   11.750    4.100     0.354    13.302   445.160  4.654E+09  7.173E+09
   5    0.233   15.850    4.100     0.375    11.488   368.301  2.542E+09  5.034E+09
   6    0.300   19.950    4.100     0.375    10.162   353.510  2.022E+09  4.469E+09
   7    0.367   24.050    4.100     0.375     9.009   335.102  1.549E+09  3.953E+09
   8    0.433   28.150    4.100     0.375     7.795   306.314  1.051E+09  3.378E+09
   9    0.500   32.250    4.100     0.375     6.549   272.375  6.410E+08  2.685E+09
  10    0.567   36.350    4.100     0.375     5.359   245.485  3.782E+08  2.170E+09
  11    0.633   40.450    4.100     0.375     4.189   201.195  2.151E+08  1.486E+09
  12    0.700   44.550    4.100     0.375     3.144   167.837  1.180E+08  1.114E+09
  13    0.767   48.650    4.100     0.375     2.319   140.582  8.396E+07  7.559E+08
  14    0.833   52.750    4.100     0.375     1.526   107.471  5.498E+07  4.849E+08
  15    0.889   56.167    2.733     0.375     0.863    90.806  3.717E+07  3.758E+08
  16    0.933   58.900    2.733     0.375     0.370    70.842  2.545E+07  2.735E+08
  17    0.978   61.633    2.733     0.375     0.106    48.355  7.887E+06  8.728E+07


Interpolated blade 3 properties:

Node  BlFract   RNodes  DRNodes PitchAxis  StrcTwst  BMassDen    FlpStff    EdgStff
 (-)      (-)      (m)      (m)       (-)     (deg)    (kg/m)     (Nm^2)     (Nm^2)
   1    0.022    2.867    2.733     0.251    13.308   802.720  1.910E+10  1.955E+10
   2    0.067    5.600    2.733     0.278    13.308   634.770  1.123E+10  1.535E+10
   3    0.111    8.333    2.733     0.312    13.308   427.782  5.815E+09  8.460E+09
   4    0.167   11.750    4.100     0.354    13.302   445.160  4.654E+09  7.173E+09
   5    0.233   15.850    4.100     0.375    11.488   368.301  2.542E+09  5.034E+09
   6    0.300   19.950    4.100     0.375    10.162   353.510  2.022E+09  4.469E+09
   7    0.367   24.050    4.100     0.375     9.009   335.102  1.549E+09  3.953E+09
   8    0.433   28.150    4.100     0.375     7.795   306.314  1.051E+09  3.378E+09
   9    0.500   32.250    4.100     0.375     6.549   272.375  6.410E+08  2.685E+09
  10    0.567   36.350    4.100     0.375     5.359   245.485  3.782E+08  2.170E+09
  11    0.633   40.450    4.100     0.375     4.189   201.195  2.151E+08  1.486E+09
  12    0.700   44.550    4.100     0.375     3.144   167.837  1.180E+08  1.114E+09
  13    0.767   48.650    4.100     0.375     2.319   140.582  8.396E+07  7.559E+08
  14    0.833   52.750    4.100     0.375     1.526   107.471  5.498E+07  4.849E+08
  15    0.889   56.167    2.733     0.375     0.863    90.806  3.717E+07  3.758E+08
  16    0.933   58.900    2.733     0.375     0.370    70.842  2.545E+07  2.735E+08
  17    0.978   61.633    2.733     0.375     0.106    48.355  7.887E+06  8.728E+07


Requested Outputs:


  Col  Parameter  Units
  ---  ---------  -----
   0   Time       (s)       
   1   Azimuth    (deg)     
   2   RotSpeed   (rpm)     
   3   GenSpeed   (rpm)     
   4   OoPDefl1   (m)       
   5   IPDefl1    (m)       
   6   TwstDefl1  (deg)     
   7   BldPitch1  (deg)     
   8   TTDspFA    (m)       
   9   TTDspSS    (m)       
  10   TTDspTwst  (deg)     
  11   PtfmSurge  (m)       
  12   PtfmSway   (m)       
  13   PtfmHeave  (m)       
  14   PtfmRoll   (deg)     
  15   PtfmPitch  (deg)     
  16   PtfmYaw    (deg)     
  17   RootFxc1   (kN)      
  18   RootFyc1   (kN)      
  19   RootFzc1   (kN)      
  20   RootMxc1   (kN·m)    
  21   RootMyc1   (kN·m)    
  22   RootMzc1   (kN·m)    
  23   RotTorq    (kN·m)    
  24   LSSGagMya  (kN·m)    
  25   LSSGagMza  (kN·m)    
  26   YawBrFxp   (kN)      
  27   YawBrFyp   (kN)      
  28   YawBrFzp   (kN)      
  29   YawBrMxp   (kN·m)    
  30   YawBrMyp   (kN·m)    
  31   YawBrMzp   (kN·m)    
  32   TwrBsFxt   (kN)      
  33   TwrBsFyt   (kN)      
  34   TwrBsFzt   (kN)      
  35   TwrBsMxt   (kN·m)    
  36   TwrBsMyt   (kN·m)    
  37   TwrBsMzt   (kN·m)    
