
These predictions were generated by FAST (v7.01.00a-bjj, 16-Feb-2012)-Compiled as S-Function for Simulink on 17-Feb-2012 at 14:04:04.
The aerodynamic calculations were made by AeroDyn (v13.00.01a-bjj, 16-Feb-2012).

 FAST certification Test #04: AWT-27CR2 with many DOFs with free yaw and FF turbulence.

Time	Azimuth	TeetDefl	NacYawP	Spn5MLxb1	Spn5MLyb1	RootFxc1	RootFyc1	RootFzc1	RootMOoP1	RootMIP1	RootMzc1	RotTorq	YawBrMxp	YawBrMyp	TTDspFA	TTDspSS	TwrBsFxt	TwrBsFyt	Spn3TDxb2	Spn2FLxb1
(s)	(deg)	(deg)	(deg)	(kN·m)	(kN·m)	(kN)	(kN)	(kN)	(kN·m)	(kN·m)	(kN·m)	(kN·m)	(kN·m)	(kN·m)	(m)	(m)	(kN)	(kN)	(m)	(kN)
  10.015	 3.249E+02	 7.427E-01	-8.871E-01	-1.409E-02	-2.349E-01	 3.393E+00	 4.047E-02	 7.702E+01	 3.128E+01	 4.023E+00	-5.818E-04	 3.658E+01	 3.822E+01	 8.397E+01	 4.844E-02	-3.607E-04	 2.775E+01	 2.633E+00	 2.786E-02	 3.934E+00
  10.030	 3.297E+02	 7.343E-01	-8.639E-01	 3.249E-02	-1.238E-01	 3.512E+00	-2.377E-01	 7.684E+01	 3.251E+01	 5.439E+00	-7.820E-03	 3.620E+01	 3.774E+01	 8.333E+01	 4.815E-02	-4.511E-04	 2.744E+01	 2.302E+00	 2.874E-02	 4.020E+00
  10.046	 3.345E+02	 7.212E-01	-8.381E-01	 7.985E-02	-6.344E-03	 3.653E+00	-5.369E-01	 7.667E+01	 3.409E+01	 6.988E+00	-1.645E-02	 3.565E+01	 3.706E+01	 8.267E+01	 4.785E-02	-5.806E-04	 2.708E+01	 1.853E+00	 2.980E-02	 4.185E+00
  10.061	 3.393E+02	 7.029E-01	-8.100E-01	 1.264E-01	 1.145E-01	 3.813E+00	-8.448E-01	 7.651E+01	 3.569E+01	 8.554E+00	-2.614E-02	 3.507E+01	 3.634E+01	 8.209E+01	 4.755E-02	-7.476E-04	 2.669E+01	 1.377E+00	 3.095E-02	 4.374E+00
  10.077	 3.446E+02	 6.764E-01	-7.768E-01	 1.711E-01	 2.549E-01	 3.958E+00	-1.172E+00	 7.637E+01	 3.718E+01	 1.014E+01	-3.663E-02	 3.449E+01	 3.563E+01	 8.163E+01	 4.723E-02	-9.713E-04	 2.625E+01	 9.132E-01	 3.218E-02	 4.536E+00
  10.092	 3.494E+02	 6.460E-01	-7.449E-01	 1.921E-01	 3.380E-01	 4.025E+00	-1.450E+00	 7.625E+01	 3.814E+01	 1.133E+01	-4.420E-02	 3.393E+01	 3.497E+01	 8.125E+01	 4.696E-02	-1.205E-03	 2.588E+01	 5.881E-01	 3.317E-02	 4.634E+00
  10.107	 3.542E+02	 6.099E-01	-7.118E-01	 2.020E-01	 3.782E-01	 4.049E+00	-1.703E+00	 7.618E+01	 3.865E+01	 1.231E+01	-5.003E-02	 3.309E+01	 3.405E+01	 8.088E+01	 4.671E-02	-1.462E-03	 2.560E+01	 3.467E-01	 3.391E-02	 4.686E+00
  10.123	 3.595E+02	 5.633E-01	-6.743E-01	 1.985E-01	 3.707E-01	 3.955E+00	-1.983E+00	 7.613E+01	 3.857E+01	 1.327E+01	-5.463E-02	 3.280E+01	 3.366E+01	 8.012E+01	 4.646E-02	-1.758E-03	 2.541E+01	 7.802E-02	 3.345E-02	 4.697E+00
  10.139	 4.300E+00	 5.169E-01	-6.395E-01	 2.183E-01	 3.711E-01	 3.695E+00	-2.255E+00	 7.613E+01	 3.726E+01	 1.442E+01	-6.263E-02	 3.168E+01	 3.245E+01	 7.951E+01	 4.625E-02	-2.030E-03	 2.529E+01	-1.617E-01	 3.222E-02	 4.545E+00
  10.154	 9.100E+00	 4.671E-01	-6.045E-01	 2.386E-01	 3.958E-01	 3.902E+00	-2.496E+00	 7.623E+01	 3.644E+01	 1.535E+01	-6.756E-02	 2.966E+01	 3.033E+01	 7.952E+01	 4.607E-02	-2.293E-03	 2.541E+01	-4.735E-01	 3.191E-02	 4.506E+00
  10.170	 1.438E+01	 4.003E-01	-5.667E-01	 2.102E-01	 2.863E-01	 3.812E+00	-2.707E+00	 7.632E+01	 3.534E+01	 1.568E+01	-6.390E-02	 2.813E+01	 2.863E+01	 7.869E+01	 4.590E-02	-2.559E-03	 2.548E+01	-1.013E+00	 3.111E-02	 4.458E+00
  10.185	 1.918E+01	 3.304E-01	-5.331E-01	 1.855E-01	 1.631E-01	 3.698E+00	-2.892E+00	 7.646E+01	 3.403E+01	 1.594E+01	-6.076E-02	 2.760E+01	 2.790E+01	 7.793E+01	 4.578E-02	-2.772E-03	 2.550E+01	-1.611E+00	 2.994E-02	 4.387E+00
  10.200	 2.398E+01	 2.544E-01	-5.003E-01	 1.781E-01	 5.996E-02	 3.490E+00	-3.104E+00	 7.665E+01	 3.198E+01	 1.657E+01	-6.109E-02	 2.763E+01	 2.772E+01	 7.722E+01	 4.568E-02	-2.954E-03	 2.545E+01	-2.162E+00	 2.849E-02	 4.196E+00
  10.216	 2.926E+01	 1.643E-01	-4.655E-01	 1.806E-01	-4.633E-02	 3.163E+00	-3.377E+00	 7.688E+01	 2.934E+01	 1.771E+01	-6.378E-02	 2.777E+01	 2.768E+01	 7.651E+01	 4.560E-02	-3.117E-03	 2.543E+01	-2.547E+00	 2.651E-02	 3.933E+00
  10.232	 3.406E+01	 7.796E-02	-4.354E-01	 1.930E-01	-1.790E-01	 2.843E+00	-3.655E+00	 7.710E+01	 2.702E+01	 1.908E+01	-6.735E-02	 2.747E+01	 2.729E+01	 7.623E+01	 4.554E-02	-3.227E-03	 2.553E+01	-2.632E+00	 2.451E-02	 3.723E+00
  10.247	 3.886E+01	-9.295E-03	-4.078E-01	 2.041E-01	-3.789E-01	 2.576E+00	-3.961E+00	 7.732E+01	 2.504E+01	 2.074E+01	-7.160E-02	 2.676E+01	 2.654E+01	 7.656E+01	 4.548E-02	-3.294E-03	 2.576E+01	-2.520E+00	 2.262E-02	 3.556E+00
  10.263	 4.414E+01	-1.024E-01	-3.820E-01	 2.272E-01	-6.191E-01	 2.436E+00	-4.337E+00	 7.761E+01	 2.396E+01	 2.294E+01	-7.816E-02	 2.623E+01	 2.601E+01	 7.757E+01	 4.541E-02	-3.312E-03	 2.609E+01	-2.326E+00	 2.111E-02	 3.521E+00
  10.278	 4.894E+01	-1.813E-01	-3.636E-01	 2.495E-01	-8.526E-01	 2.513E+00	-4.754E+00	 7.792E+01	 2.450E+01	 2.560E+01	-9.007E-02	 2.741E+01	 2.715E+01	 7.896E+01	 4.534E-02	-3.272E-03	 2.632E+01	-2.224E+00	 2.074E-02	 3.677E+00
  10.293	 5.374E+01	-2.521E-01	-3.510E-01	 3.411E-01	-9.597E-01	 2.826E+00	-5.300E+00	 7.827E+01	 2.685E+01	 2.936E+01	-1.144E-01	 3.153E+01	 3.118E+01	 8.069E+01	 4.529E-02	-3.182E-03	 2.633E+01	-2.210E+00	 2.155E-02	 4.077E+00
  10.309	 5.902E+01	-3.177E-01	-3.440E-01	 5.089E-01	-8.770E-01	 3.353E+00	-6.060E+00	 7.865E+01	 3.078E+01	 3.476E+01	-1.610E-01	 3.935E+01	 3.889E+01	 8.297E+01	 4.526E-02	-3.035E-03	 2.593E+01	-2.101E+00	 2.363E-02	 4.652E+00
  10.325	 6.382E+01	-3.639E-01	-3.438E-01	 6.947E-01	-6.230E-01	 3.880E+00	-6.781E+00	 7.895E+01	 3.512E+01	 3.993E+01	-2.208E-01	 4.735E+01	 4.688E+01	 8.529E+01	 4.526E-02	-2.874E-03	 2.517E+01	-1.639E+00	 2.628E-02	 5.220E+00
  10.340	 6.862E+01	-3.962E-01	-3.489E-01	 8.525E-01	-2.825E-01	 4.401E+00	-7.374E+00	 7.921E+01	 3.984E+01	 4.408E+01	-2.872E-01	 5.342E+01	 5.312E+01	 8.766E+01	 4.533E-02	-2.701E-03	 2.423E+01	-6.908E-01	 2.929E-02	 5.786E+00
  10.356	 7.390E+01	-4.152E-01	-3.601E-01	 9.584E-01	 1.492E-01	 5.032E+00	-7.763E+00	 7.946E+01	 4.523E+01	 4.653E+01	-3.499E-01	 5.572E+01	 5.582E+01	 9.021E+01	 4.546E-02	-2.506E-03	 2.327E+01	 7.343E-01	 3.274E-02	 6.395E+00
  10.371	 7.870E+01	-4.176E-01	-3.747E-01	 9.744E-01	 5.283E-01	 5.665E+00	-7.854E+00	 7.971E+01	 4.987E+01	 4.668E+01	-3.833E-01	 5.368E+01	 5.422E+01	 9.226E+01	 4.566E-02	-2.321E-03	 2.270E+01	 1.957E+00	 3.590E-02	 6.861E+00
  10.386	 8.350E+01	-4.090E-01	-3.924E-01	 9.186E-01	 8.156E-01	 6.251E+00	-7.716E+00	 7.999E+01	 5.397E+01	 4.510E+01	-3.873E-01	 4.909E+01	 4.996E+01	 9.356E+01	 4.593E-02	-2.124E-03	 2.252E+01	 2.656E+00	 3.877E-02	 7.267E+00
  10.402	 8.878E+01	-3.915E-01	-4.142E-01	 8.059E-01	 9.965E-01	 6.683E+00	-7.406E+00	 8.034E+01	 5.731E+01	 4.230E+01	-3.661E-01	 4.351E+01	 4.455E+01	 9.392E+01	 4.633E-02	-1.892E-03	 2.275E+01	 2.521E+00	 4.116E-02	 7.574E+00
  10.418	 9.358E+01	-3.713E-01	-4.348E-01	 7.148E-01	 1.069E+00	 6.856E+00	-7.082E+00	 8.070E+01	 5.888E+01	 3.978E+01	-3.394E-01	 3.976E+01	 4.073E+01	 9.338E+01	 4.679E-02	-1.675E-03	 2.330E+01	 1.682E+00	 4.251E-02	 7.736E+00
  10.433	 9.838E+01	-3.504E-01	-4.547E-01	 6.527E-01	 1.079E+00	 6.870E+00	-6.812E+00	 8.108E+01	 5.886E+01	 3.787E+01	-3.162E-01	 3.809E+01	 3.887E+01	 9.232E+01	 4.735E-02	-1.471E-03	 2.411E+01	 5.967E-01	 4.303E-02	 7.688E+00
  10.449	 1.037E+02	-3.313E-01	-4.744E-01	 6.158E-01	 1.016E+00	 6.675E+00	-6.582E+00	 8.151E+01	 5.707E+01	 3.646E+01	-2.964E-01	 3.824E+01	 3.882E+01	 9.084E+01	 4.806E-02	-1.285E-03	 2.522E+01	-2.525E-01	 4.254E-02	 7.423E+00
  10.464	 1.085E+02	-3.204E-01	-4.895E-01	 5.933E-01	 9.034E-01	 6.359E+00	-6.413E+00	 8.187E+01	 5.417E+01	 3.550E+01	-2.790E-01	 3.917E+01	 3.973E+01	 8.950E+01	 4.879E-02	-1.170E-03	 2.634E+01	-3.182E-01	 4.108E-02	 7.036E+00
  10.479	 1.133E+02	-3.169E-01	-5.017E-01	 5.722E-01	 7.644E-01	 5.919E+00	-6.238E+00	 8.223E+01	 5.032E+01	 3.452E+01	-2.581E-01	 3.977E+01	 4.048E+01	 8.837E+01	 4.958E-02	-1.112E-03	 2.751E+01	 3.370E-01	 3.877E-02	 6.555E+00
  10.495	 1.185E+02	-3.217E-01	-5.122E-01	 5.381E-01	 6.051E-01	 5.305E+00	-6.012E+00	 8.261E+01	 4.530E+01	 3.316E+01	-2.285E-01	 3.918E+01	 4.020E+01	 8.751E+01	 5.050E-02	-1.105E-03	 2.879E+01	 1.537E+00	 3.542E-02	 5.971E+00
  10.511	 1.233E+02	-3.336E-01	-5.194E-01	 4.851E-01	 4.179E-01	 4.643E+00	-5.741E+00	 8.295E+01	 4.042E+01	 3.150E+01	-1.962E-01	 3.718E+01	 3.851E+01	 8.702E+01	 5.135E-02	-1.135E-03	 2.994E+01	 2.539E+00	 3.184E-02	 5.393E+00
  10.526	 1.281E+02	-3.510E-01	-5.249E-01	 4.231E-01	 1.751E-01	 3.996E+00	-5.416E+00	 8.329E+01	 3.572E+01	 2.955E+01	-1.635E-01	 3.417E+01	 3.571E+01	 8.672E+01	 5.219E-02	-1.183E-03	 3.107E+01	 2.985E+00	 2.807E-02	 4.862E+00
  10.542	 1.334E+02	-3.745E-01	-5.292E-01	 3.660E-01	-1.038E-01	 3.368E+00	-5.022E+00	 8.366E+01	 3.097E+01	 2.736E+01	-1.322E-01	 3.067E+01	 3.222E+01	 8.639E+01	 5.307E-02	-1.245E-03	 3.226E+01	 2.576E+00	 2.412E-02	 4.279E+00
  10.557	 1.382E+02	-3.986E-01	-5.313E-01	 3.297E-01	-3.019E-01	 2.880E+00	-4.679E+00	 8.399E+01	 2.715E+01	 2.559E+01	-1.094E-01	 2.840E+01	 2.978E+01	 8.597E+01	 5.380E-02	-1.308E-03	 3.325E+01	 1.520E+00	 2.093E-02	 3.828E+00
  10.572	 1.430E+02	-4.244E-01	-5.315E-01	 3.017E-01	-4.258E-01	 2.446E+00	-4.362E+00	 8.428E+01	 2.396E+01	 2.402E+01	-9.142E-02	 2.751E+01	 2.861E+01	 8.537E+01	 5.446E-02	-1.388E-03	 3.409E+01	 2.143E-01	 1.822E-02	 3.441E+00
  10.588	 1.483E+02	-4.534E-01	-5.291E-01	 2.732E-01	-4.960E-01	 2.019E+00	-4.024E+00	 8.455E+01	 2.125E+01	 2.237E+01	-7.602E-02	 2.773E+01	 2.858E+01	 8.456E+01	 5.506E-02	-1.510E-03	 3.481E+01	-9.289E-01	 1.595E-02	 3.087E+00
  10.604	 1.531E+02	-4.785E-01	-5.245E-01	 2.418E-01	-5.279E-01	 1.799E+00	-3.722E+00	 8.477E+01	 1.992E+01	 2.086E+01	-6.526E-02	 2.850E+01	 2.926E+01	 8.388E+01	 5.550E-02	-1.662E-03	 3.531E+01	-1.326E+00	 1.472E-02	 2.913E+00
  10.619	 1.579E+02	-5.007E-01	-5.181E-01	 2.111E-01	-5.532E-01	 1.762E+00	-3.420E+00	 8.496E+01	 1.973E+01	 1.938E+01	-5.757E-02	 2.928E+01	 3.010E+01	 8.336E+01	 5.582E-02	-1.853E-03	 3.564E+01	-1.062E+00	 1.438E-02	 2.868E+00
  10.635	 1.632E+02	-5.203E-01	-5.094E-01	 1.864E-01	-5.743E-01	 1.903E+00	-3.108E+00	 8.514E+01	 2.081E+01	 1.799E+01	-5.281E-02	 3.012E+01	 3.111E+01	 8.304E+01	 5.602E-02	-2.098E-03	 3.576E+01	-3.115E-01	 1.504E-02	 3.013E+00
  10.650	 1.680E+02	-5.332E-01	-5.007E-01	 1.795E-01	-5.896E-01	 2.163E+00	-2.848E+00	 8.527E+01	 2.273E+01	 1.704E+01	-5.176E-02	 3.105E+01	 3.218E+01	 8.291E+01	 5.608E-02	-2.332E-03	 3.560E+01	 3.511E-01	 1.645E-02	 3.268E+00
  10.665	 1.728E+02	-5.416E-01	-4.918E-01	 2.101E-01	-6.252E-01	 2.446E+00	-2.544E+00	 8.536E+01	 2.507E+01	 1.613E+01	-5.336E-02	 3.200E+01	 3.319E+01	 8.281E+01	 5.602E-02	-2.561E-03	 3.519E+01	 6.460E-01	 1.846E-02	 3.500E+00
  10.681	 1.781E+02	-5.474E-01	-4.822E-01	 3.139E-01	-2.580E-01	 2.882E+00	-2.248E+00	 8.536E+01	 2.764E+01	 1.530E+01	-5.751E-02	 3.356E+01	 3.463E+01	 8.267E+01	 5.584E-02	-2.793E-03	 3.452E+01	 3.493E-01	 2.102E-02	 3.763E+00
  10.697	 1.829E+02	-5.538E-01	-4.742E-01	 2.313E-01	-9.982E-02	 2.932E+00	-1.929E+00	 8.528E+01	 2.896E+01	 1.352E+01	-5.046E-02	 3.440E+01	 3.525E+01	 8.281E+01	 5.556E-02	-2.980E-03	 3.381E+01	-3.528E-01	 2.316E-02	 3.664E+00
  10.712	 1.877E+02	-5.624E-01	-4.674E-01	 1.235E-01	 2.167E-02	 3.300E+00	-1.578E+00	 8.517E+01	 3.321E+01	 1.117E+01	-3.466E-02	 3.417E+01	 3.478E+01	 8.383E+01	 5.519E-02	-3.146E-03	 3.330E+01	-1.211E+00	 2.510E-02	 4.207E+00
  10.728	 1.929E+02	-5.621E-01	-4.621E-01	 1.003E-01	 6.644E-02	 4.003E+00	-1.255E+00	 8.515E+01	 3.775E+01	 9.789E+00	-2.744E-02	 3.377E+01	 3.415E+01	 8.382E+01	 5.469E-02	-3.307E-03	 3.262E+01	-2.078E+00	 2.820E-02	 4.630E+00
  10.743	 1.977E+02	-5.551E-01	-4.591E-01	 1.307E-01	 1.794E-01	 4.578E+00	-1.089E+00	 8.505E+01	 4.197E+01	 9.661E+00	-2.876E-02	 3.454E+01	 3.475E+01	 8.395E+01	 5.418E-02	-3.436E-03	 3.187E+01	-2.598E+00	 3.133E-02	 5.188E+00
  10.758	 2.025E+02	-5.447E-01	-4.574E-01	 1.763E-01	 2.768E-01	 4.996E+00	-9.900E-01	 8.487E+01	 4.565E+01	 9.983E+00	-3.433E-02	 3.644E+01	 3.655E+01	 8.408E+01	 5.365E-02	-3.549E-03	 3.096E+01	-2.720E+00	 3.403E-02	 5.630E+00
  10.774	 2.078E+02	-5.272E-01	-4.569E-01	 2.261E-01	 4.175E-01	 5.321E+00	-8.888E-01	 8.461E+01	 4.872E+01	 1.032E+01	-4.157E-02	 3.928E+01	 3.936E+01	 8.394E+01	 5.305E-02	-3.653E-03	 2.987E+01	-2.392E+00	 3.662E-02	 5.939E+00
  10.790	 2.126E+02	-5.052E-01	-4.578E-01	 2.471E-01	 5.765E-01	 5.630E+00	-7.408E-01	 8.436E+01	 5.085E+01	 1.001E+01	-4.151E-02	 4.180E+01	 4.191E+01	 8.392E+01	 5.250E-02	-3.721E-03	 2.900E+01	-1.823E+00	 3.887E-02	 6.130E+00
  10.805	 2.174E+02	-4.802E-01	-4.608E-01	 2.219E-01	 7.104E-01	 5.898E+00	-4.874E-01	 8.410E+01	 5.260E+01	 8.687E+00	-2.794E-02	 4.364E+01	 4.382E+01	 8.450E+01	 5.196E-02	-3.755E-03	 2.837E+01	-1.224E+00	 4.095E-02	 6.279E+00
  10.821	 2.227E+02	-4.534E-01	-4.676E-01	 1.492E-01	 8.041E-01	 6.154E+00	-9.329E-02	 8.381E+01	 5.421E+01	 6.217E+00	 1.440E-03	 4.470E+01	 4.493E+01	 8.591E+01	 5.139E-02	-3.742E-03	 2.794E+01	-7.919E-01	 4.292E-02	 6.437E+00
  10.836	 2.275E+02	-4.327E-01	-4.781E-01	 7.185E-02	 8.377E-01	 6.369E+00	 3.144E-01	 8.355E+01	 5.527E+01	 3.580E+00	 3.286E-02	 4.477E+01	 4.500E+01	 8.759E+01	 5.091E-02	-3.680E-03	 2.767E+01	-7.241E-01	 4.444E-02	 6.534E+00
  10.851	 2.323E+02	-4.177E-01	-4.934E-01	-7.896E-04	 8.334E-01	 6.555E+00	 7.215E-01	 8.329E+01	 5.572E+01	 1.017E+00	 6.152E-02	 4.421E+01	 4.442E+01	 8.936E+01	 5.047E-02	-3.571E-03	 2.738E+01	-9.390E-01	 4.571E-02	 6.569E+00
  10.867	 2.376E+02	-4.114E-01	-5.159E-01	-6.885E-02	 7.905E-01	 6.703E+00	 1.135E+00	 8.297E+01	 5.553E+01	-1.546E+00	 8.713E-02	 4.305E+01	 4.325E+01	 9.129E+01	 5.005E-02	-3.404E-03	 2.696E+01	-1.306E+00	 4.664E-02	 6.561E+00
  10.883	 2.424E+02	-4.170E-01	-5.410E-01	-1.222E-01	 7.161E-01	 6.708E+00	 1.487E+00	 8.266E+01	 5.452E+01	-3.691E+00	 1.045E-01	 4.166E+01	 4.191E+01	 9.290E+01	 4.974E-02	-3.224E-03	 2.648E+01	-1.526E+00	 4.685E-02	 6.450E+00
  10.898	 2.472E+02	-4.339E-01	-5.695E-01	-1.735E-01	 6.427E-01	 6.540E+00	 1.806E+00	 8.230E+01	 5.267E+01	-5.673E+00	 1.171E-01	 4.020E+01	 4.059E+01	 9.431E+01	 4.949E-02	-3.028E-03	 2.600E+01	-1.476E+00	 4.622E-02	 6.257E+00
  10.914	 2.525E+02	-4.640E-01	-6.037E-01	-2.266E-01	 5.778E-01	 6.107E+00	 2.121E+00	 8.189E+01	 4.962E+01	-7.651E+00	 1.251E-01	 3.860E+01	 3.923E+01	 9.545E+01	 4.928E-02	-2.806E-03	 2.563E+01	-1.054E+00	 4.453E-02	 5.901E+00
  10.929	 2.573E+02	-4.989E-01	-6.360E-01	-2.844E-01	 4.499E-01	 5.553E+00	 2.360E+00	 8.150E+01	 4.614E+01	-9.209E+00	 1.272E-01	 3.714E+01	 3.803E+01	 9.598E+01	 4.914E-02	-2.604E-03	 2.560E+01	-4.324E-01	 4.211E-02	 5.462E+00
  10.944	 2.621E+02	-5.364E-01	-6.682E-01	-3.355E-01	 2.825E-01	 4.936E+00	 2.502E+00	 8.111E+01	 4.237E+01	-1.018E+01	 1.219E-01	 3.556E+01	 3.669E+01	 9.563E+01	 4.903E-02	-2.403E-03	 2.591E+01	 2.448E-01	 3.902E-02	 4.996E+00
  10.960	 2.673E+02	-5.739E-01	-7.022E-01	-3.556E-01	 6.920E-02	 4.366E+00	 2.512E+00	 8.072E+01	 3.818E+01	-1.023E+01	 1.056E-01	 3.357E+01	 3.490E+01	 9.398E+01	 4.892E-02	-2.183E-03	 2.660E+01	 8.210E-01	 3.542E-02	 4.520E+00
  10.976	 2.721E+02	-6.006E-01	-7.306E-01	-3.486E-01	-1.528E-01	 3.999E+00	 2.383E+00	 8.039E+01	 3.475E+01	-9.364E+00	 8.541E-02	 3.183E+01	 3.323E+01	 9.166E+01	 4.883E-02	-1.983E-03	 2.741E+01	 1.032E+00	 3.224E-02	 4.151E+00
  10.991	 2.769E+02	-6.181E-01	-7.559E-01	-3.121E-01	-3.648E-01	 3.680E+00	 2.175E+00	 8.010E+01	 3.180E+01	-7.917E+00	 6.473E-02	 3.042E+01	 3.179E+01	 8.902E+01	 4.874E-02	-1.785E-03	 2.816E+01	 9.340E-01	 2.928E-02	 3.892E+00
  11.007	 2.822E+02	-6.246E-01	-7.797E-01	-2.544E-01	-5.292E-01	 3.414E+00	 1.893E+00	 7.979E+01	 2.919E+01	-5.988E+00	 4.520E-02	 2.966E+01	 3.091E+01	 8.640E+01	 4.864E-02	-1.576E-03	 2.873E+01	 5.980E-01	 2.640E-02	 3.689E+00
  11.022	 2.870E+02	-6.180E-01	-7.976E-01	-1.997E-01	-5.947E-01	 3.206E+00	 1.645E+00	 7.952E+01	 2.731E+01	-4.344E+00	 3.225E-02	 2.968E+01	 3.080E+01	 8.468E+01	 4.853E-02	-1.403E-03	 2.890E+01	 2.916E-01	 2.415E-02	 3.526E+00
  11.037	 2.918E+02	-5.990E-01	-8.121E-01	-1.611E-01	-6.063E-01	 2.990E+00	 1.431E+00	 7.924E+01	 2.585E+01	-3.044E+00	 2.402E-02	 3.016E+01	 3.121E+01	 8.369E+01	 4.842E-02	-1.253E-03	 2.873E+01	 1.711E-01	 2.230E-02	 3.366E+00
  11.053	 2.971E+02	-5.627E-01	-8.246E-01	-1.371E-01	-5.628E-01	 2.844E+00	 1.230E+00	 7.894E+01	 2.497E+01	-1.963E+00	 1.872E-02	 3.104E+01	 3.209E+01	 8.334E+01	 4.827E-02	-1.122E-03	 2.831E+01	 3.473E-01	 2.105E-02	 3.248E+00
  11.069	 3.019E+02	-5.163E-01	-8.332E-01	-1.235E-01	-5.012E-01	 2.902E+00	 1.060E+00	 7.869E+01	 2.521E+01	-1.164E+00	 1.617E-02	 3.215E+01	 3.326E+01	 8.355E+01	 4.810E-02	-1.035E-03	 2.788E+01	 7.373E-01	 2.087E-02	 3.276E+00
  11.084	 3.067E+02	-4.593E-01	-8.397E-01	-1.050E-01	-4.298E-01	 3.109E+00	 8.696E-01	 7.844E+01	 2.649E+01	-2.913E-01	 1.434E-02	 3.370E+01	 3.490E+01	 8.398E+01	 4.791E-02	-9.756E-04	 2.750E+01	 1.210E+00	 2.150E-02	 3.448E+00
  11.100	 3.120E+02	-3.867E-01	-8.446E-01	-6.503E-02	-3.347E-01	 3.437E+00	 5.965E-01	 7.817E+01	 2.876E+01	 1.111E+00	 1.066E-02	 3.591E+01	 3.720E+01	 8.436E+01	 4.767E-02	-9.404E-04	 2.710E+01	 1.656E+00	 2.296E-02	 3.734E+00
  11.115	 3.168E+02	-3.141E-01	-8.470E-01	-6.101E-03	-2.158E-01	 3.749E+00	 2.927E-01	 7.793E+01	 3.125E+01	 2.879E+00	 3.991E-03	 3.818E+01	 3.950E+01	 8.454E+01	 4.744E-02	-9.337E-04	 2.673E+01	 1.895E+00	 2.480E-02	 4.063E+00
  11.130	 3.216E+02	-2.373E-01	-8.476E-01	 5.916E-02	-8.977E-02	 4.070E+00	-5.830E-02	 7.770E+01	 3.394E+01	 4.957E+00	-5.760E-03	 4.005E+01	 4.136E+01	 8.444E+01	 4.721E-02	-9.513E-04	 2.635E+01	 1.961E+00	 2.699E-02	 4.401E+00
  11.146	 3.269E+02	-1.510E-01	-8.463E-01	 1.254E-01	 4.632E-02	 4.420E+00	-4.351E-01	 7.744E+01	 3.705E+01	 7.160E+00	-1.794E-02	 4.100E+01	 4.230E+01	 8.421E+01	 4.697E-02	-9.999E-04	 2.595E+01	 1.872E+00	 2.964E-02	 4.759E+00
  11.162	 3.317E+02	-7.321E-02	-8.438E-01	 1.676E-01	 1.509E-01	 4.774E+00	-7.425E-01	 7.720E+01	 3.996E+01	 8.792E+00	-2.774E-02	 4.081E+01	 4.209E+01	 8.406E+01	 4.678E-02	-1.072E-03	 2.563E+01	 1.682E+00	 3.201E-02	 5.093E+00
  11.177	 3.365E+02	 2.179E-03	-8.403E-01	 1.928E-01	 2.434E-01	 5.102E+00	-1.015E+00	 7.697E+01	 4.265E+01	 1.006E+01	-3.567E-02	 3.996E+01	 4.121E+01	 8.403E+01	 4.662E-02	-1.169E-03	 2.533E+01	 1.417E+00	 3.410E-02	 5.371E+00
  11.193	 3.417E+02	 8.171E-02	-8.358E-01	 2.160E-01	 3.692E-01	 5.385E+00	-1.313E+00	 7.674E+01	 4.505E+01	 1.132E+01	-4.425E-02	 3.890E+01	 4.011E+01	 8.413E+01	 4.649E-02	-1.306E-03	 2.500E+01	 1.072E+00	 3.592E-02	 5.624E+00
  11.208	 3.465E+02	 1.509E-01	-8.315E-01	 2.430E-01	 5.053E-01	 5.468E+00	-1.577E+00	 7.657E+01	 4.637E+01	 1.250E+01	-5.395E-02	 3.809E+01	 3.927E+01	 8.428E+01	 4.643E-02	-1.455E-03	 2.473E+01	 7.525E-01	 3.713E-02	 5.737E+00
  11.223	 3.513E+02	 2.174E-01	-8.273E-01	 2.762E-01	 6.381E-01	 5.373E+00	-1.848E+00	 7.643E+01	 4.679E+01	 1.378E+01	-6.560E-02	 3.739E+01	 3.853E+01	 8.441E+01	 4.641E-02	-1.624E-03	 2.455E+01	 4.674E-01	 3.796E-02	 5.748E+00
  11.239	 3.566E+02	 2.876E-01	-8.232E-01	 3.002E-01	 7.211E-01	 5.297E+00	-2.166E+00	 7.631E+01	 4.676E+01	 1.517E+01	-7.733E-02	 3.735E+01	 3.845E+01	 8.462E+01	 4.646E-02	-1.829E-03	 2.463E+01	 1.907E-01	 3.796E-02	 5.722E+00
  11.255	 1.417E+00	 3.482E-01	-8.203E-01	 3.061E-01	 6.930E-01	 4.943E+00	-2.467E+00	 7.621E+01	 4.573E+01	 1.635E+01	-8.564E-02	 3.757E+01	 3.863E+01	 8.426E+01	 4.655E-02	-2.030E-03	 2.482E+01	 1.985E-03	 3.639E-02	 5.596E+00
  11.270	 6.217E+00	 4.107E-01	-8.180E-01	 3.378E-01	 6.982E-01	 4.948E+00	-2.760E+00	 7.622E+01	 4.427E+01	 1.771E+01	-9.713E-02	 3.560E+01	 3.669E+01	 8.497E+01	 4.668E-02	-2.236E-03	 2.526E+01	-7.331E-02	 3.532E-02	 5.463E+00
  11.286	 1.150E+01	 4.754E-01	-8.172E-01	 3.222E-01	 5.970E-01	 5.174E+00	-3.004E+00	 7.628E+01	 4.329E+01	 1.831E+01	-9.513E-02	 3.295E+01	 3.406E+01	 8.552E+01	 4.687E-02	-2.459E-03	 2.585E+01	-2.527E-01	 3.526E-02	 5.467E+00
  11.301	 1.630E+01	 5.233E-01	-8.182E-01	 2.664E-01	 3.829E-01	 5.208E+00	-3.185E+00	 7.637E+01	 4.240E+01	 1.827E+01	-8.531E-02	 3.211E+01	 3.316E+01	 8.531E+01	 4.709E-02	-2.648E-03	 2.625E+01	-6.412E-01	 3.466E-02	 5.504E+00
  11.316	 2.110E+01	 5.622E-01	-8.204E-01	 2.323E-01	 1.564E-01	 5.057E+00	-3.400E+00	 7.651E+01	 4.071E+01	 1.862E+01	-8.122E-02	 3.274E+01	 3.367E+01	 8.481E+01	 4.736E-02	-2.820E-03	 2.644E+01	-1.154E+00	 3.342E-02	 5.407E+00
  11.332	 2.638E+01	 5.966E-01	-8.233E-01	 2.418E-01	 5.058E-03	 4.689E+00	-3.732E+00	 7.673E+01	 3.769E+01	 2.008E+01	-8.748E-02	 3.425E+01	 3.502E+01	 8.431E+01	 4.769E-02	-2.992E-03	 2.653E+01	-1.634E+00	 3.154E-02	 5.091E+00
  11.348	 3.118E+01	 6.202E-01	-8.263E-01	 2.848E-01	-7.445E-02	 4.281E+00	-4.103E+00	 7.694E+01	 3.475E+01	 2.218E+01	-9.823E-02	 3.516E+01	 3.585E+01	 8.412E+01	 4.801E-02	-3.132E-03	 2.673E+01	-1.823E+00	 2.959E-02	 4.769E+00
  11.363	 3.598E+01	 6.370E-01	-8.300E-01	 3.252E-01	-1.865E-01	 3.916E+00	-4.493E+00	 7.714E+01	 3.245E+01	 2.453E+01	-1.090E-01	 3.490E+01	 3.560E+01	 8.445E+01	 4.833E-02	-3.254E-03	 2.720E+01	-1.757E+00	 2.776E-02	 4.533E+00
  11.379	 4.126E+01	 6.499E-01	-8.361E-01	 3.670E-01	-3.473E-01	 3.766E+00	-4.904E+00	 7.736E+01	 3.143E+01	 2.695E+01	-1.196E-01	 3.345E+01	 3.423E+01	 8.543E+01	 4.867E-02	-3.358E-03	 2.801E+01	-1.548E+00	 2.629E-02	 4.498E+00
  11.394	 4.606E+01	 6.590E-01	-8.447E-01	 3.973E-01	-4.857E-01	 3.836E+00	-5.262E+00	 7.759E+01	 3.177E+01	 2.902E+01	-1.302E-01	 3.222E+01	 3.307E+01	 8.674E+01	 4.896E-02	-3.418E-03	 2.875E+01	-1.441E+00	 2.561E-02	 4.631E+00
  11.409	 5.086E+01	 6.681E-01	-8.570E-01	 4.410E-01	-5.500E-01	 4.007E+00	-5.629E+00	 7.786E+01	 3.293E+01	 3.116E+01	-1.446E-01	 3.219E+01	 3.306E+01	 8.821E+01	 4.924E-02	-3.438E-03	 2.921E+01	-1.524E+00	 2.554E-02	 4.851E+00
  11.425	 5.614E+01	 6.801E-01	-8.747E-01	 5.026E-01	-5.161E-01	 4.158E+00	-6.041E+00	 7.819E+01	 3.451E+01	 3.369E+01	-1.672E-01	 3.408E+01	 3.492E+01	 8.976E+01	 4.956E-02	-3.419E-03	 2.919E+01	-1.763E+00	 2.600E-02	 5.082E+00
  11.441	 6.094E+01	 6.936E-01	-8.943E-01	 5.706E-01	-4.006E-01	 4.310E+00	-6.422E+00	 7.850E+01	 3.632E+01	 3.608E+01	-1.935E-01	 3.713E+01	 3.794E+01	 9.099E+01	 4.986E-02	-3.370E-03	 2.878E+01	-1.912E+00	 2.682E-02	 5.296E+00
  11.456	 6.574E+01	 7.102E-01	-9.163E-01	 6.398E-01	-2.368E-01	 4.504E+00	-6.777E+00	 7.883E+01	 3.848E+01	 3.834E+01	-2.237E-01	 4.038E+01	 4.124E+01	 9.213E+01	 5.017E-02	-3.304E-03	 2.823E+01	-1.788E+00	 2.802E-02	 5.539E+00
  11.472	 7.102E+01	 7.317E-01	-9.424E-01	 7.024E-01	-4.580E-02	 4.813E+00	-7.096E+00	 7.919E+01	 4.141E+01	 4.038E+01	-2.576E-01	 4.302E+01	 4.406E+01	 9.326E+01	 5.051E-02	-3.221E-03	 2.777E+01	-1.245E+00	 2.985E-02	 5.888E+00
  11.487	 7.582E+01	 7.526E-01	-9.668E-01	 7.394E-01	 1.053E-01	 5.186E+00	-7.301E+00	 7.952E+01	 4.451E+01	 4.165E+01	-2.854E-01	 4.412E+01	 4.541E+01	 9.414E+01	 5.083E-02	-3.140E-03	 2.764E+01	-5.005E-01	 3.195E-02	 6.266E+00
  11.502	 8.062E+01	 7.728E-01	-9.912E-01	 7.549E-01	 2.174E-01	 5.618E+00	-7.412E+00	 7.986E+01	 4.777E+01	 4.234E+01	-3.083E-01	 4.424E+01	 4.577E+01	 9.473E+01	 5.116E-02	-3.053E-03	 2.780E+01	 2.365E-01	 3.434E-02	 6.647E+00
  11.518	 8.590E+01	 7.912E-01	-1.017E+00	 7.564E-01	 3.056E-01	 6.069E+00	-7.462E+00	 8.023E+01	 5.119E+01	 4.263E+01	-3.280E-01	 4.414E+01	 4.587E+01	 9.493E+01	 5.154E-02	-2.947E-03	 2.820E+01	 7.474E-01	 3.699E-02	 7.034E+00
  11.534	 9.070E+01	 8.022E-01	-1.038E+00	 7.536E-01	 3.728E-01	 6.402E+00	-7.447E+00	 8.057E+01	 5.378E+01	 4.263E+01	-3.425E-01	 4.450E+01	 4.629E+01	 9.460E+01	 5.193E-02	-2.843E-03	 2.860E+01	 8.168E-01	 3.924E-02	 7.307E+00
  11.549	 9.550E+01	 8.059E-01	-1.057E+00	 7.568E-01	 4.577E-01	 6.649E+00	-7.390E+00	 8.090E+01	 5.580E+01	 4.245E+01	-3.537E-01	 4.556E+01	 4.729E+01	 9.385E+01	 5.236E-02	-2.737E-03	 2.895E+01	 5.870E-01	 4.120E-02	 7.512E+00
  11.565	 1.008E+02	 7.989E-01	-1.074E+00	 7.628E-01	 5.731E-01	 6.776E+00	-7.265E+00	 8.125E+01	 5.728E+01	 4.195E+01	-3.609E-01	 4.714E+01	 4.877E+01	 9.263E+01	 5.289E-02	-2.630E-03	 2.925E+01	 2.393E-01	 4.289E-02	 7.637E+00
  11.580	 1.056E+02	 7.817E-01	-1.086E+00	 7.610E-01	 6.847E-01	 6.772E+00	-7.104E+00	 8.154E+01	 5.792E+01	 4.118E+01	-3.608E-01	 4.845E+01	 5.001E+01	 9.141E+01	 5.342E-02	-2.553E-03	 2.953E+01	 7.163E-02	 4.393E-02	 7.649E+00
  11.595	 1.104E+02	 7.538E-01	-1.093E+00	 7.371E-01	 7.750E-01	 6.688E+00	-6.899E+00	 8.182E+01	 5.800E+01	 4.003E+01	-3.519E-01	 4.905E+01	 5.062E+01	 9.026E+01	 5.398E-02	-2.502E-03	 2.991E+01	 1.712E-01	 4.448E-02	 7.576E+00
  11.611	 1.157E+02	 7.119E-01	-1.097E+00	 6.881E-01	 8.030E-01	 6.553E+00	-6.605E+00	 8.212E+01	 5.747E+01	 3.822E+01	-3.304E-01	 4.834E+01	 5.002E+01	 8.918E+01	 5.463E-02	-2.478E-03	 3.055E+01	 5.538E-01	 4.445E-02	 7.428E+00
  11.627	 1.205E+02	 6.647E-01	-1.097E+00	 6.293E-01	 7.645E-01	 6.354E+00	-6.299E+00	 8.240E+01	 5.634E+01	 3.624E+01	-3.032E-01	 4.647E+01	 4.830E+01	 8.852E+01	 5.524E-02	-2.481E-03	 3.131E+01	 9.626E-01	 4.374E-02	 7.230E+00
  11.642	 1.253E+02	 6.109E-01	-1.094E+00	 5.768E-01	 6.911E-01	 6.102E+00	-5.970E+00	 8.269E+01	 5.450E+01	 3.421E+01	-2.747E-01	 4.395E+01	 4.591E+01	 8.809E+01	 5.586E-02	-2.502E-03	 3.218E+01	 1.201E+00	 4.237E-02	 6.964E+00
  11.658	 1.305E+02	 5.461E-01	-1.088E+00	 5.381E-01	 6.246E-01	 5.728E+00	-5.633E+00	 8.304E+01	 5.157E+01	 3.229E+01	-2.468E-01	 4.125E+01	 4.328E+01	 8.784E+01	 5.655E-02	-2.538E-03	 3.314E+01	 1.092E+00	 4.022E-02	 6.584E+00
  11.673	 1.353E+02	 4.831E-01	-1.081E+00	 5.195E-01	 5.648E-01	 5.297E+00	-5.336E+00	 8.336E+01	 4.821E+01	 3.078E+01	-2.246E-01	 3.926E+01	 4.126E+01	 8.762E+01	 5.715E-02	-2.583E-03	 3.395E+01	 6.711E-01	 3.783E-02	 6.138E+00
  11.688	 1.401E+02	 4.169E-01	-1.071E+00	 4.874E-01	 4.717E-01	 4.783E+00	-5.035E+00	 8.365E+01	 4.455E+01	 2.925E+01	-2.014E-01	 3.778E+01	 3.969E+01	 8.729E+01	 5.772E-02	-2.640E-03	 3.470E+01	 9.014E-02	 3.520E-02	 5.673E+00
  11.704	 1.454E+02	 3.419E-01	-1.058E+00	 4.360E-01	 3.197E-01	 4.258E+00	-4.661E+00	 8.394E+01	 4.068E+01	 2.725E+01	-1.726E-01	 3.649E+01	 3.829E+01	 8.672E+01	 5.829E-02	-2.725E-03	 3.549E+01	-4.952E-01	 3.233E-02	 5.208E+00
  11.720	 1.502E+02	 2.730E-01	-1.044E+00	 3.783E-01	 1.482E-01	 3.869E+00	-4.277E+00	 8.418E+01	 3.757E+01	 2.509E+01	-1.448E-01	 3.553E+01	 3.727E+01	 8.602E+01	 5.872E-02	-2.823E-03	 3.616E+01	-8.171E-01	 2.996E-02	 4.834E+00
  11.735	 1.550E+02	 2.048E-01	-1.028E+00	 3.141E-01	-3.157E-02	 3.592E+00	-3.885E+00	 8.440E+01	 3.503E+01	 2.281E+01	-1.185E-01	 3.482E+01	 3.655E+01	 8.540E+01	 5.907E-02	-2.943E-03	 3.678E+01	-8.994E-01	 2.796E-02	 4.553E+00
  11.750	 1.598E+02	 1.379E-01	-1.012E+00	 2.585E-01	-1.978E-01	 3.365E+00	-3.495E+00	 8.460E+01	 3.296E+01	 2.063E+01	-9.676E-02	 3.433E+01	 3.608E+01	 8.493E+01	 5.933E-02	-3.078E-03	 3.724E+01	-8.067E-01	 2.645E-02	 4.321E+00
  11.766	 1.651E+02	 6.619E-02	-9.931E-01	 2.127E-01	-3.313E-01	 3.209E+00	-3.100E+00	 8.481E+01	 3.142E+01	 1.861E+01	-7.952E-02	 3.427E+01	 3.604E+01	 8.467E+01	 5.948E-02	-3.237E-03	 3.753E+01	-6.642E-01	 2.537E-02	 4.174E+00
  11.781	 1.699E+02	 2.079E-03	-9.767E-01	 1.920E-01	-4.282E-01	 3.006E+00	-2.730E+00	 8.498E+01	 3.042E+01	 1.702E+01	-6.972E-02	 3.451E+01	 3.627E+01	 8.465E+01	 5.951E-02	-3.381E-03	 3.753E+01	-6.256E-01	 2.476E-02	 4.008E+00
  11.797	 1.752E+02	-6.788E-02	-9.600E-01	 2.446E-01	-3.872E-01	 2.956E+00	-2.381E+00	 8.508E+01	 2.983E+01	 1.575E+01	-6.593E-02	 3.520E+01	 3.689E+01	 8.491E+01	 5.941E-02	-3.532E-03	 3.733E+01	-7.701E-01	 2.435E-02	 3.890E+00
  11.812	 1.800E+02	-1.305E-01	-9.464E-01	 2.709E-01	 4.983E-02	 2.976E+00	-2.179E+00	 8.510E+01	 2.881E+01	 1.492E+01	-6.234E-02	 3.610E+01	 3.768E+01	 8.485E+01	 5.919E-02	-3.658E-03	 3.693E+01	-1.047E+00	 2.425E-02	 3.641E+00
  11.828	 1.848E+02	-1.950E-01	-9.344E-01	 1.112E-01	-4.123E-02	 2.807E+00	-1.793E+00	 8.505E+01	 2.900E+01	 1.243E+01	-4.353E-02	 3.504E+01	 3.655E+01	 8.545E+01	 5.886E-02	-3.772E-03	 3.648E+01	-1.312E+00	 2.419E-02	 3.548E+00
  11.843	 1.896E+02	-2.568E-01	-9.245E-01	 6.763E-03	-2.110E-01	 3.193E+00	-1.418E+00	 8.502E+01	 3.229E+01	 1.013E+01	-2.726E-02	 3.336E+01	 3.479E+01	 8.628E+01	 5.841E-02	-3.869E-03	 3.610E+01	-1.601E+00	 2.472E-02	 4.036E+00
  11.859	 1.949E+02	-3.110E-01	-9.159E-01	 2.184E-02	-2.931E-01	 3.900E+00	-1.208E+00	 8.503E+01	 3.584E+01	 9.762E+00	-2.764E-02	 3.334E+01	 3.463E+01	 8.599E+01	 5.781E-02	-3.952E-03	 3.533E+01	-2.000E+00	 2.680E-02	 4.565E+00
  11.874	 1.997E+02	-3.515E-01	-9.097E-01	 9.711E-02	-2.635E-01	 4.521E+00	-1.170E+00	 8.496E+01	 3.886E+01	 1.060E+01	-3.730E-02	 3.563E+01	 3.675E+01	 8.577E+01	 5.720E-02	-4.007E-03	 3.433E+01	-2.325E+00	 2.914E-02	 5.027E+00
  11.889	 2.045E+02	-3.869E-01	-9.043E-01	 1.736E-01	-1.656E-01	 4.821E+00	-1.132E+00	 8.479E+01	 4.111E+01	 1.135E+01	-4.695E-02	 3.928E+01	 4.026E+01	 8.576E+01	 5.653E-02	-4.045E-03	 3.309E+01	-2.429E+00	 3.118E-02	 5.324E+00
  11.905	 2.097E+02	-4.201E-01	-8.990E-01	 2.116E-01	 2.600E-02	 4.970E+00	-9.723E-01	 8.456E+01	 4.283E+01	 1.110E+01	-4.884E-02	 4.314E+01	 4.404E+01	 8.602E+01	 5.576E-02	-4.070E-03	 3.174E+01	-2.163E+00	 3.310E-02	 5.452E+00
  11.921	 2.145E+02	-4.455E-01	-8.955E-01	 1.872E-01	 2.329E-01	 5.045E+00	-6.759E-01	 8.432E+01	 4.420E+01	 9.499E+00	-3.639E-02	 4.508E+01	 4.600E+01	 8.669E+01	 5.502E-02	-4.073E-03	 3.078E+01	-1.628E+00	 3.476E-02	 5.503E+00
  11.936	 2.193E+02	-4.677E-01	-8.942E-01	 1.082E-01	 3.934E-01	 5.217E+00	-2.546E-01	 8.408E+01	 4.588E+01	 6.807E+00	-1.050E-02	 4.493E+01	 4.595E+01	 8.769E+01	 5.425E-02	-4.050E-03	 3.018E+01	-1.031E+00	 3.649E-02	 5.581E+00
  11.952	 2.246E+02	-4.906E-01	-8.964E-01	-6.401E-03	 4.802E-01	 5.560E+00	 2.495E-01	 8.379E+01	 4.827E+01	 3.420E+00	 2.616E-02	 4.315E+01	 4.426E+01	 8.901E+01	 5.339E-02	-3.983E-03	 2.980E+01	-6.331E-01	 3.847E-02	 5.816E+00
  11.967	 2.294E+02	-5.113E-01	-9.023E-01	-9.193E-02	 4.838E-01	 5.918E+00	 6.607E-01	 8.353E+01	 5.042E+01	 7.889E-01	 5.573E-02	 4.127E+01	 4.239E+01	 9.011E+01	 5.261E-02	-3.878E-03	 2.941E+01	-6.815E-01	 4.026E-02	 6.049E+00
  11.982	 2.342E+02	-5.323E-01	-9.118E-01	-1.350E-01	 4.568E-01	 6.242E+00	 9.563E-01	 8.326E+01	 5.213E+01	-8.547E-01	 7.373E-02	 4.041E+01	 4.144E+01	 9.101E+01	 5.187E-02	-3.732E-03	 2.877E+01	-1.088E+00	 4.190E-02	 6.267E+00
  11.998	 2.395E+02	-5.565E-01	-9.259E-01	-1.367E-01	 4.257E-01	 6.508E+00	 1.137E+00	 8.293E+01	 5.325E+01	-1.529E+00	 7.938E-02	 4.126E+01	 4.215E+01	 9.185E+01	 5.112E-02	-3.537E-03	 2.775E+01	-1.656E+00	 4.338E-02	 6.442E+00
  12.014	 2.443E+02	-5.801E-01	-9.412E-01	-1.206E-01	 3.948E-01	 6.619E+00	 1.236E+00	 8.261E+01	 5.358E+01	-1.648E+00	 7.789E-02	 4.328E+01	 4.410E+01	 9.271E+01	 5.050E-02	-3.344E-03	 2.667E+01	-1.918E+00	 4.435E-02	 6.505E+00
  12.029	 2.491E+02	-6.057E-01	-9.578E-01	-1.132E-01	 3.578E-01	 6.638E+00	 1.334E+00	 8.226E+01	 5.358E+01	-1.855E+00	 7.770E-02	 4.562E+01	 4.649E+01	 9.373E+01	 4.994E-02	-3.151E-03	 2.570E+01	-1.680E+00	 4.500E-02	 6.520E+00
  12.045	 2.544E+02	-6.360E-01	-9.769E-01	-1.280E-01	 3.092E-01	 6.651E+00	 1.470E+00	 8.183E+01	 5.358E+01	-2.499E+00	 8.311E-02	 4.753E+01	 4.862E+01	 9.486E+01	 4.941E-02	-2.948E-03	 2.498E+01	-8.169E-01	 4.547E-02	 6.512E+00
  12.060	 2.592E+02	-6.643E-01	-9.941E-01	-1.600E-01	 2.686E-01	 6.673E+00	 1.599E+00	 8.142E+01	 5.361E+01	-3.307E+00	 9.133E-02	 4.821E+01	 4.960E+01	 9.552E+01	 4.899E-02	-2.774E-03	 2.469E+01	 2.715E-01	 4.574E-02	 6.509E+00
  12.075	 2.640E+02	-6.917E-01	-1.011E+00	-1.852E-01	 2.675E-01	 6.670E+00	 1.692E+00	 8.100E+01	 5.353E+01	-3.944E+00	 9.763E-02	 4.806E+01	 4.974E+01	 9.558E+01	 4.864E-02	-2.606E-03	 2.470E+01	 1.284E+00	 4.582E-02	 6.489E+00
  12.091	 2.693E+02	-7.183E-01	-1.027E+00	-1.941E-01	 2.923E-01	 6.585E+00	 1.698E+00	 8.055E+01	 5.312E+01	-4.035E+00	 9.795E-02	 4.738E+01	 4.925E+01	 9.477E+01	 4.834E-02	-2.421E-03	 2.489E+01	 1.942E+00	 4.560E-02	 6.424E+00
  12.107	 2.741E+02	-7.369E-01	-1.039E+00	-1.790E-01	 3.152E-01	 6.434E+00	 1.610E+00	 8.016E+01	 5.237E+01	-3.441E+00	 9.048E-02	 4.666E+01	 4.855E+01	 9.336E+01	 4.816E-02	-2.254E-03	 2.512E+01	 1.981E+00	 4.501E-02	 6.323E+00
  12.122	 2.789E+02	-7.476E-01	-1.047E+00	-1.468E-01	 3.207E-01	 6.232E+00	 1.451E+00	 7.980E+01	 5.131E+01	-2.340E+00	 7.709E-02	 4.590E+01	 4.768E+01	 9.150E+01	 4.805E-02	-2.092E-03	 2.535E+01	 1.589E+00	 4.413E-02	 6.191E+00
  12.138	 2.841E+02	-7.476E-01	-1.052E+00	-1.045E-01	 3.129E-01	 6.017E+00	 1.241E+00	 7.943E+01	 4.992E+01	-9.042E-01	 5.974E-02	 4.495E+01	 4.654E+01	 8.936E+01	 4.801E-02	-1.933E-03	 2.562E+01	 9.529E-01	 4.304E-02	 6.028E+00
  12.153	 2.889E+02	-7.367E-01	-1.051E+00	-7.653E-02	 2.840E-01	 5.858E+00	 1.063E+00	 7.912E+01	 4.864E+01	 2.102E-01	 4.652E-02	 4.408E+01	 4.555E+01	 8.780E+01	 4.805E-02	-1.816E-03	 2.592E+01	 4.791E-01	 4.207E-02	 5.893E+00
  12.168	 2.937E+02	-7.160E-01	-1.047E+00	-6.993E-02	 2.242E-01	 5.727E+00	 9.260E-01	 7.881E+01	 4.746E+01	 9.065E-01	 3.865E-02	 4.320E+01	 4.463E+01	 8.677E+01	 4.813E-02	-1.736E-03	 2.626E+01	 3.045E-01	 4.114E-02	 5.796E+00
  12.184	 2.990E+02	-6.834E-01	-1.037E+00	-7.753E-02	 1.422E-01	 5.598E+00	 8.159E-01	 7.848E+01	 4.612E+01	 1.220E+00	 3.476E-02	 4.226E+01	 4.375E+01	 8.621E+01	 4.829E-02	-1.693E-03	 2.664E+01	 5.020E-01	 4.016E-02	 5.682E+00
  12.200	 3.038E+02	-6.467E-01	-1.025E+00	-8.348E-02	 7.793E-02	 5.415E+00	 7.425E-01	 7.819E+01	 4.462E+01	 1.298E+00	 3.237E-02	 4.140E+01	 4.302E+01	 8.598E+01	 4.847E-02	-1.694E-03	 2.695E+01	 9.202E-01	 3.921E-02	 5.496E+00
  12.215	 3.086E+02	-6.050E-01	-1.008E+00	-8.309E-02	 5.527E-02	 5.218E+00	 6.322E-01	 7.793E+01	 4.296E+01	 1.552E+00	 2.853E-02	 4.089E+01	 4.265E+01	 8.581E+01	 4.868E-02	-1.727E-03	 2.723E+01	 1.345E+00	 3.815E-02	 5.289E+00
  12.231	 3.139E+02	-5.558E-01	-9.867E-01	-6.422E-02	 4.893E-02	 4.884E+00	 4.810E-01	 7.766E+01	 4.080E+01	 2.120E+00	 2.131E-02	 4.052E+01	 4.238E+01	 8.549E+01	 4.894E-02	-1.796E-03	 2.753E+01	 1.610E+00	 3.674E-02	 4.954E+00
  12.246	 3.187E+02	-5.103E-01	-9.634E-01	-3.772E-02	 7.600E-02	 4.563E+00	 2.743E-01	 7.743E+01	 3.895E+01	 3.055E+00	 1.255E-02	 4.027E+01	 4.214E+01	 8.489E+01	 4.918E-02	-1.881E-03	 2.786E+01	 1.564E+00	 3.524E-02	 4.699E+00
  12.261	 3.235E+02	-4.648E-01	-9.366E-01	 6.539E-04	 1.140E-01	 4.234E+00	 3.147E-02	 7.724E+01	 3.734E+01	 4.311E+00	 1.943E-03	 3.955E+01	 4.136E+01	 8.404E+01	 4.942E-02	-1.987E-03	 2.827E+01	 1.271E+00	 3.374E-02	 4.475E+00
  12.277	 3.288E+02	-4.161E-01	-9.034E-01	 4.671E-02	 1.392E-01	 3.907E+00	-2.440E-01	 7.706E+01	 3.589E+01	 5.805E+00	-9.806E-03	 3.793E+01	 3.963E+01	 8.299E+01	 4.967E-02	-2.126E-03	 2.880E+01	 7.590E-01	 3.227E-02	 4.282E+00
  12.293	 3.336E+02	-3.743E-01	-8.703E-01	 7.686E-02	 1.361E-01	 3.732E+00	-5.129E-01	 7.691E+01	 3.517E+01	 7.167E+00	-1.905E-02	 3.606E+01	 3.764E+01	 8.211E+01	 4.987E-02	-2.274E-03	 2.933E+01	 2.227E-01	 3.110E-02	 4.190E+00
  12.308	 3.384E+02	-3.353E-01	-8.352E-01	 9.984E-02	 1.029E-01	 3.609E+00	-7.789E-01	 7.678E+01	 3.466E+01	 8.454E+00	-2.744E-02	 3.429E+01	 3.575E+01	 8.152E+01	 5.005E-02	-2.440E-03	 2.976E+01	-2.877E-01	 3.003E-02	 4.139E+00
  12.324	 3.437E+02	-2.952E-01	-7.949E-01	 1.256E-01	 6.733E-02	 3.538E+00	-1.117E+00	 7.665E+01	 3.423E+01	 1.002E+01	-3.728E-02	 3.304E+01	 3.439E+01	 8.117E+01	 5.022E-02	-2.641E-03	 3.000E+01	-7.429E-01	 2.901E-02	 4.079E+00
  12.339	 3.485E+02	-2.599E-01	-7.577E-01	 1.629E-01	 8.801E-02	 3.491E+00	-1.457E+00	 7.655E+01	 3.372E+01	 1.166E+01	-4.782E-02	 3.265E+01	 3.391E+01	 8.118E+01	 5.035E-02	-2.836E-03	 2.999E+01	-1.017E+00	 2.844E-02	 4.062E+00
  12.354	 3.533E+02	-2.250E-01	-7.207E-01	 1.978E-01	 1.096E-01	 3.465E+00	-1.786E+00	 7.649E+01	 3.310E+01	 1.325E+01	-5.729E-02	 3.277E+01	 3.397E+01	 8.155E+01	 5.045E-02	-3.039E-03	 2.984E+01	-1.158E+00	 2.816E-02	 4.028E+00
  12.370	 3.585E+02	-1.884E-01	-6.808E-01	 2.146E-01	 7.438E-02	 3.215E+00	-2.115E+00	 7.642E+01	 3.212E+01	 1.465E+01	-6.382E-02	 3.357E+01	 3.471E+01	 8.158E+01	 5.052E-02	-3.262E-03	 2.959E+01	-1.219E+00	 2.712E-02	 3.974E+00
  12.386	 3.335E+00	-1.541E-01	-6.455E-01	 2.373E-01	 4.615E-02	 3.012E+00	-2.408E+00	 7.641E+01	 3.084E+01	 1.595E+01	-7.025E-02	 3.312E+01	 3.423E+01	 8.178E+01	 5.054E-02	-3.457E-03	 2.945E+01	-1.193E+00	 2.610E-02	 3.857E+00
  12.401	 8.135E+00	-1.204E-01	-6.116E-01	 2.497E-01	 3.492E-02	 3.548E+00	-2.647E+00	 7.652E+01	 3.130E+01	 1.678E+01	-7.183E-02	 3.164E+01	 3.272E+01	 8.252E+01	 5.051E-02	-3.636E-03	 2.962E+01	-1.225E+00	 2.673E-02	 4.005E+00
  12.417	 1.342E+01	-9.693E-02	-5.761E-01	 2.027E-01	-1.492E-01	 3.712E+00	-2.850E+00	 7.659E+01	 3.239E+01	 1.694E+01	-6.679E-02	 3.066E+01	 3.162E+01	 8.190E+01	 5.044E-02	-3.802E-03	 2.968E+01	-1.513E+00	 2.746E-02	 4.263E+00
  12.432	 1.822E+01	-8.548E-02	-5.452E-01	 1.910E-01	-2.608E-01	 3.842E+00	-3.090E+00	 7.671E+01	 3.335E+01	 1.762E+01	-6.837E-02	 3.130E+01	 3.206E+01	 8.140E+01	 5.034E-02	-3.919E-03	 2.958E+01	-1.985E+00	 2.782E-02	 4.473E+00
  12.447	 2.302E+01	-8.010E-02	-5.154E-01	 2.377E-01	-2.449E-01	 3.874E+00	-3.418E+00	 7.687E+01	 3.352E+01	 1.928E+01	-7.913E-02	 3.285E+01	 3.339E+01	 8.117E+01	 5.023E-02	-4.005E-03	 2.930E+01	-2.463E+00	 2.805E-02	 4.531E+00
  12.463	 2.830E+01	-8.125E-02	-4.839E-01	 3.163E-01	-1.351E-01	 3.804E+00	-3.829E+00	 7.705E+01	 3.316E+01	 2.170E+01	-9.634E-02	 3.447E+01	 3.481E+01	 8.116E+01	 5.009E-02	-4.067E-03	 2.888E+01	-2.756E+00	 2.819E-02	 4.470E+00
  12.479	 3.310E+01	-8.982E-02	-4.568E-01	 3.690E-01	-4.813E-02	 3.742E+00	-4.182E+00	 7.719E+01	 3.317E+01	 2.370E+01	-1.108E-01	 3.509E+01	 3.532E+01	 8.131E+01	 4.994E-02	-4.091E-03	 2.858E+01	-2.712E+00	 2.826E-02	 4.448E+00
  12.494	 3.790E+01	-1.043E-01	-4.320E-01	 3.897E-01	-3.073E-02	 3.785E+00	-4.482E+00	 7.735E+01	 3.395E+01	 2.523E+01	-1.223E-01	 3.478E+01	 3.499E+01	 8.168E+01	 4.977E-02	-4.083E-03	 2.842E+01	-2.443E+00	 2.852E-02	 4.553E+00
  12.510	 4.317E+01	-1.239E-01	-4.083E-01	 3.879E-01	-6.087E-02	 4.029E+00	-4.792E+00	 7.758E+01	 3.594E+01	 2.670E+01	-1.340E-01	 3.446E+01	 3.466E+01	 8.236E+01	 4.956E-02	-4.027E-03	 2.837E+01	-2.097E+00	 2.942E-02	 4.869E+00
  12.525	 4.797E+01	-1.429E-01	-3.904E-01	 3.945E-01	-1.184E-01	 4.375E+00	-5.095E+00	 7.785E+01	 3.856E+01	 2.828E+01	-1.489E-01	 3.537E+01	 3.554E+01	 8.307E+01	 4.937E-02	-3.929E-03	 2.825E+01	-1.897E+00	 3.088E-02	 5.264E+00
  12.540	 5.277E+01	-1.619E-01	-3.763E-01	 4.277E-01	-1.702E-01	 4.763E+00	-5.469E+00	 7.814E+01	 4.172E+01	 3.053E+01	-1.736E-01	 3.834E+01	 3.839E+01	 8.382E+01	 4.920E-02	-3.788E-03	 2.795E+01	-1.839E+00	 3.280E-02	 5.713E+00
  12.556	 5.805E+01	-1.807E-01	-3.651E-01	 5.057E-01	-1.716E-01	 5.234E+00	-5.997E+00	 7.847E+01	 4.560E+01	 3.406E+01	-2.171E-01	 4.387E+01	 4.379E+01	 8.493E+01	 4.905E-02	-3.590E-03	 2.737E+01	-1.783E+00	 3.526E-02	 6.256E+00
  12.572	 6.285E+01	-1.940E-01	-3.586E-01	 6.210E-01	-8.786E-02	 5.689E+00	-6.552E+00	 7.875E+01	 4.929E+01	 3.792E+01	-2.716E-01	 4.959E+01	 4.944E+01	 8.641E+01	 4.896E-02	-3.386E-03	 2.669E+01	-1.505E+00	 3.763E-02	 6.726E+00
  12.587	 6.765E+01	-2.015E-01	-3.554E-01	 7.459E-01	 6.314E-02	 6.161E+00	-7.102E+00	 7.901E+01	 5.309E+01	 4.183E+01	-3.348E-01	 5.439E+01	 5.429E+01	 8.843E+01	 4.893E-02	-3.169E-03	 2.598E+01	-8.732E-01	 4.001E-02	 7.216E+00
  12.603	 7.293E+01	-2.020E-01	-3.557E-01	 8.716E-01	 2.730E-01	 6.601E+00	-7.593E+00	 7.928E+01	 5.705E+01	 4.532E+01	-4.030E-01	 5.703E+01	 5.715E+01	 9.104E+01	 4.898E-02	-2.926E-03	 2.533E+01	 1.675E-01	 4.248E-02	 7.697E+00
  12.618	 7.773E+01	-1.943E-01	-3.589E-01	 9.650E-01	 5.662E-01	 7.034E+00	-7.898E+00	 7.953E+01	 6.043E+01	 4.735E+01	-4.529E-01	 5.692E+01	 5.732E+01	 9.347E+01	 4.910E-02	-2.702E-03	 2.497E+01	 1.160E+00	 4.461E-02	 8.102E+00
  12.633	 8.253E+01	-1.802E-01	-3.645E-01	 9.940E-01	 8.437E-01	 7.389E+00	-8.005E+00	 7.982E+01	 6.313E+01	 4.782E+01	-4.780E-01	 5.501E+01	 5.566E+01	 9.515E+01	 4.931E-02	-2.474E-03	 2.486E+01	 1.895E+00	 4.645E-02	 8.379E+00
  12.649	 8.781E+01	-1.611E-01	-3.723E-01	 9.507E-01	 1.059E+00	 7.601E+00	-7.875E+00	 8.014E+01	 6.519E+01	 4.650E+01	-4.712E-01	 5.184E+01	 5.264E+01	 9.562E+01	 4.965E-02	-2.217E-03	 2.502E+01	 2.157E+00	 4.780E-02	 8.542E+00
  12.665	 9.261E+01	-1.423E-01	-3.795E-01	 8.646E-01	 1.163E+00	 7.647E+00	-7.598E+00	 8.046E+01	 6.598E+01	 4.420E+01	-4.410E-01	 4.899E+01	 4.980E+01	 9.487E+01	 5.006E-02	-1.984E-03	 2.544E+01	 1.882E+00	 4.832E-02	 8.561E+00
  12.680	 9.741E+01	-1.237E-01	-3.857E-01	 7.735E-01	 1.207E+00	 7.578E+00	-7.268E+00	 8.081E+01	 6.559E+01	 4.163E+01	-4.017E-01	 4.684E+01	 4.757E+01	 9.346E+01	 5.056E-02	-1.762E-03	 2.611E+01	 1.320E+00	 4.816E-02	 8.446E+00
  12.696	 1.027E+02	-1.050E-01	-3.900E-01	 7.012E-01	 1.199E+00	 7.380E+00	-6.925E+00	 8.122E+01	 6.373E+01	 3.915E+01	-3.610E-01	 4.544E+01	 4.606E+01	 9.169E+01	 5.121E-02	-1.549E-03	 2.711E+01	 7.387E-01	 4.713E-02	 8.174E+00
  12.711	 1.075E+02	-9.160E-02	-3.910E-01	 6.565E-01	 1.154E+00	 7.036E+00	-6.670E+00	 8.160E+01	 6.068E+01	 3.743E+01	-3.294E-01	 4.465E+01	 4.523E+01	 9.032E+01	 5.187E-02	-1.396E-03	 2.818E+01	 5.348E-01	 4.539E-02	 7.788E+00
  12.726	 1.123E+02	-8.276E-02	-3.889E-01	 6.166E-01	 1.041E+00	 6.549E+00	-6.443E+00	 8.199E+01	 5.662E+01	 3.599E+01	-2.990E-01	 4.360E+01	 4.425E+01	 8.930E+01	 5.259E-02	-1.290E-03	 2.934E+01	 7.567E-01	 4.288E-02	 7.305E+00
  12.742	 1.176E+02	-7.911E-02	-3.830E-01	 5.572E-01	 7.870E-01	 5.899E+00	-6.171E+00	 8.240E+01	 5.148E+01	 3.432E+01	-2.618E-01	 4.140E+01	 4.224E+01	 8.858E+01	 5.341E-02	-1.226E-03	 3.066E+01	 1.365E+00	 3.935E-02	 6.710E+00
  12.758	 1.224E+02	-8.026E-02	-3.745E-01	 5.007E-01	 4.754E-01	 5.318E+00	-5.885E+00	 8.279E+01	 4.652E+01	 3.263E+01	-2.264E-01	 3.842E+01	 3.947E+01	 8.816E+01	 5.418E-02	-1.208E-03	 3.184E+01	 1.952E+00	 3.575E-02	 6.156E+00
  12.773	 1.272E+02	-8.471E-02	-3.631E-01	 4.503E-01	 1.593E-01	 4.769E+00	-5.566E+00	 8.317E+01	 4.143E+01	 3.082E+01	-1.913E-01	 3.508E+01	 3.628E+01	 8.777E+01	 5.492E-02	-1.218E-03	 3.294E+01	 2.257E+00	 3.207E-02	 5.602E+00
  12.789	 1.325E+02	-9.368E-02	-3.471E-01	 4.040E-01	-1.291E-01	 4.148E+00	-5.181E+00	 8.357E+01	 3.578E+01	 2.865E+01	-1.543E-01	 3.188E+01	 3.310E+01	 8.710E+01	 5.570E-02	-1.252E-03	 3.401E+01	 2.054E+00	 2.802E-02	 4.973E+00
  12.804	 1.373E+02	-1.056E-01	-3.294E-01	 3.551E-01	-3.244E-01	 3.496E+00	-4.817E+00	 8.388E+01	 3.067E+01	 2.657E+01	-1.235E-01	 2.982E+01	 3.092E+01	 8.626E+01	 5.634E-02	-1.301E-03	 3.484E+01	 1.418E+00	 2.437E-02	 4.377E+00
  12.819	 1.421E+02	-1.196E-01	-3.086E-01	 2.938E-01	-4.958E-01	 2.884E+00	-4.445E+00	 8.417E+01	 2.611E+01	 2.442E+01	-9.692E-02	 2.881E+01	 2.970E+01	 8.515E+01	 5.688E-02	-1.371E-03	 3.561E+01	 5.740E-01	 2.099E-02	 3.790E+00
  12.835	 1.473E+02	-1.353E-01	-2.824E-01	 2.176E-01	-7.053E-01	 2.459E+00	-4.070E+00	 8.448E+01	 2.306E+01	 2.235E+01	-7.589E-02	 2.868E+01	 2.937E+01	 8.413E+01	 5.735E-02	-1.479E-03	 3.644E+01	-2.450E-01	 1.824E-02	 3.416E+00
  12.851	 1.521E+02	-1.471E-01	-2.559E-01	 2.057E-01	-8.344E-01	 2.388E+00	-3.824E+00	 8.478E+01	 2.253E+01	 2.142E+01	-6.850E-02	 3.048E+01	 3.102E+01	 8.342E+01	 5.764E-02	-1.611E-03	 3.708E+01	-6.788E-01	 1.726E-02	 3.384E+00
  12.866	 1.569E+02	-1.545E-01	-2.272E-01	 2.556E-01	-8.475E-01	 2.477E+00	-3.722E+00	 8.504E+01	 2.347E+01	 2.172E+01	-7.170E-02	 3.442E+01	 3.486E+01	 8.295E+01	 5.780E-02	-1.777E-03	 3.739E+01	-7.088E-01	 1.759E-02	 3.549E+00
  12.882	 1.622E+02	-1.559E-01	-1.931E-01	 3.422E-01	-7.416E-01	 2.657E+00	-3.670E+00	 8.522E+01	 2.553E+01	 2.258E+01	-8.303E-02	 3.947E+01	 3.990E+01	 8.269E+01	 5.784E-02	-1.999E-03	 3.722E+01	-2.580E-01	 1.890E-02	 3.809E+00
  12.897	 1.670E+02	-1.497E-01	-1.603E-01	 4.164E-01	-5.358E-01	 2.801E+00	-3.519E+00	 8.530E+01	 2.779E+01	 2.275E+01	-9.468E-02	 4.244E+01	 4.295E+01	 8.239E+01	 5.776E-02	-2.225E-03	 3.661E+01	 4.329E-01	 2.070E-02	 3.991E+00
  12.912	 1.718E+02	-1.364E-01	-1.260E-01	 4.771E-01	-2.483E-01	 3.095E+00	-3.181E+00	 8.528E+01	 3.048E+01	 2.148E+01	-1.007E-01	 4.266E+01	 4.329E+01	 8.205E+01	 5.757E-02	-2.461E-03	 3.579E+01	 1.067E+00	 2.295E-02	 4.187E+00
  12.928	 1.771E+02	-1.158E-01	-8.731E-02	 4.637E-01	 3.819E-01	 3.317E+00	-2.619E+00	 8.520E+01	 3.242E+01	 1.826E+01	-9.081E-02	 3.993E+01	 4.059E+01	 8.128E+01	 5.723E-02	-2.709E-03	 3.477E+01	 1.267E+00	 2.560E-02	 4.125E+00
  12.944	 1.819E+02	-9.773E-02	-5.230E-02	 2.116E-01	 4.353E-01	 3.545E+00	-2.016E+00	 8.502E+01	 3.563E+01	 1.350E+01	-5.128E-02	 3.521E+01	 3.577E+01	 8.172E+01	 5.681E-02	-2.906E-03	 3.415E+01	 7.650E-01	 2.757E-02	 4.380E+00
  12.959	 1.867E+02	-7.437E-02	-1.862E-02	 3.724E-02	 3.819E-01	 4.299E+00	-1.449E+00	 8.493E+01	 4.069E+01	 9.244E+00	-1.148E-02	 3.007E+01	 3.037E+01	 8.201E+01	 5.629E-02	-3.067E-03	 3.374E+01	-3.950E-01	 2.977E-02	 5.108E+00
  12.975	 1.920E+02	-3.456E-02	 1.633E-02	-1.317E-02	 2.801E-01	 5.256E+00	-1.093E+00	 8.494E+01	 4.474E+01	 7.324E+00	 5.259E-03	 2.729E+01	 2.714E+01	 8.140E+01	 5.566E-02	-3.201E-03	 3.307E+01	-2.140E+00	 3.296E-02	 5.643E+00
  12.990	 1.968E+02	 7.182E-03	 4.655E-02	 2.115E-02	 1.916E-01	 5.812E+00	-9.770E-01	 8.489E+01	 4.711E+01	 7.411E+00	 2.082E-03	 2.845E+01	 2.786E+01	 8.122E+01	 5.505E-02	-3.294E-03	 3.222E+01	-3.578E+00	 3.534E-02	 6.040E+00
  13.005	 2.016E+02	 4.938E-02	 7.573E-02	 8.233E-02	 1.048E-01	 5.893E+00	-9.341E-01	 8.476E+01	 4.789E+01	 8.141E+00	-8.489E-03	 3.215E+01	 3.124E+01	 8.133E+01	 5.442E-02	-3.375E-03	 3.116E+01	-4.290E+00	 3.645E-02	 6.232E+00
  13.021	 2.069E+02	 9.662E-02	 1.066E-01	 1.405E-01	 1.007E-01	 5.775E+00	-8.764E-01	 8.455E+01	 4.718E+01	 8.713E+00	-1.894E-02	 3.676E+01	 3.576E+01	 8.146E+01	 5.373E-02	-3.458E-03	 3.002E+01	-3.896E+00	 3.646E-02	 6.099E+00
  13.037	 2.117E+02	 1.409E-01	 1.330E-01	 1.495E-01	 1.577E-01	 5.544E+00	-7.161E-01	 8.433E+01	 4.563E+01	 8.264E+00	-1.887E-02	 3.922E+01	 3.839E+01	 8.154E+01	 5.309E-02	-3.521E-03	 2.927E+01	-2.628E+00	 3.591E-02	 5.830E+00
  13.052	 2.165E+02	 1.841E-01	 1.566E-01	 1.032E-01	 2.146E-01	 5.305E+00	-4.052E-01	 8.409E+01	 4.409E+01	 6.536E+00	-5.802E-03	 3.907E+01	 3.853E+01	 8.182E+01	 5.243E-02	-3.555E-03	 2.896E+01	-1.064E+00	 3.509E-02	 5.562E+00
  13.068	 2.217E+02	 2.278E-01	 1.782E-01	 3.506E-03	 2.044E-01	 5.100E+00	 4.020E-02	 8.380E+01	 4.295E+01	 3.701E+00	 1.781E-02	 3.658E+01	 3.631E+01	 8.235E+01	 5.169E-02	-3.529E-03	 2.903E+01	 1.749E-01	 3.399E-02	 5.353E+00
  13.083	 2.265E+02	 2.638E-01	 1.928E-01	-8.461E-02	 1.392E-01	 4.994E+00	 4.283E-01	 8.355E+01	 4.238E+01	 1.270E+00	 3.704E-02	 3.380E+01	 3.355E+01	 8.277E+01	 5.101E-02	-3.430E-03	 2.915E+01	 3.560E-01	 3.302E-02	 5.250E+00
  13.098	 2.313E+02	 2.969E-01	 2.024E-01	-1.380E-01	 4.677E-02	 4.957E+00	 7.105E-01	 8.330E+01	 4.207E+01	-2.641E-01	 4.722E-02	 3.209E+01	 3.162E+01	 8.307E+01	 5.034E-02	-3.255E-03	 2.904E+01	-4.014E-01	 3.230E-02	 5.214E+00
  13.114	 2.366E+02	 3.309E-01	 2.077E-01	-1.580E-01	-7.828E-02	 4.939E+00	 8.657E-01	 8.304E+01	 4.189E+01	-6.789E-01	 4.735E-02	 3.251E+01	 3.163E+01	 8.341E+01	 4.963E-02	-2.992E-03	 2.846E+01	-1.804E+00	 3.191E-02	 5.224E+00
  13.130	 2.414E+02	 3.601E-01	 2.081E-01	-1.409E-01	-1.838E-01	 4.975E+00	 9.053E-01	 8.279E+01	 4.206E+01	-2.244E-01	 4.089E-02	 3.499E+01	 3.375E+01	 8.396E+01	 4.902E-02	-2.716E-03	 2.756E+01	-2.866E+00	 3.208E-02	 5.296E+00
  13.145	 2.462E+02	 3.877E-01	 2.052E-01	-1.167E-01	-2.931E-01	 5.063E+00	 9.024E-01	 8.252E+01	 4.264E+01	 5.587E-01	 3.276E-02	 3.891E+01	 3.748E+01	 8.489E+01	 4.844E-02	-2.431E-03	 2.648E+01	-3.119E+00	 3.287E-02	 5.387E+00
  13.161	 2.515E+02	 4.156E-01	 1.983E-01	-7.535E-02	-3.717E-01	 5.302E+00	 8.802E-01	 8.220E+01	 4.427E+01	 1.473E+00	 2.490E-02	 4.413E+01	 4.278E+01	 8.636E+01	 4.785E-02	-2.128E-03	 2.537E+01	-2.193E+00	 3.467E-02	 5.608E+00
  13.176	 2.563E+02	 4.375E-01	 1.889E-01	-2.642E-02	-3.341E-01	 5.732E+00	 8.328E-01	 8.187E+01	 4.690E+01	 2.376E+00	 1.850E-02	 4.930E+01	 4.823E+01	 8.789E+01	 4.737E-02	-1.868E-03	 2.460E+01	-4.993E-01	 3.731E-02	 5.959E+00
  13.191	 2.611E+02	 4.545E-01	 1.765E-01	 4.921E-02	-9.834E-02	 6.347E+00	 7.469E-01	 8.149E+01	 5.043E+01	 3.330E+00	 1.278E-02	 5.444E+01	 5.376E+01	 8.948E+01	 4.694E-02	-1.618E-03	 2.405E+01	 1.487E+00	 4.077E-02	 6.445E+00
  13.207	 2.664E+02	 4.651E-01	 1.595E-01	 1.189E-01	 2.562E-01	 6.707E+00	 7.909E-01	 8.094E+01	 5.304E+01	 3.278E+00	 1.561E-02	 5.746E+01	 5.723E+01	 9.123E+01	 4.656E-02	-1.345E-03	 2.353E+01	 3.408E+00	 4.431E-02	 6.703E+00
  13.223	 2.712E+02	 4.649E-01	 1.415E-01	 7.319E-02	 5.690E-01	 6.732E+00	 1.026E+00	 8.035E+01	 5.394E+01	 1.352E+00	 4.020E-02	 5.544E+01	 5.557E+01	 9.249E+01	 4.632E-02	-1.091E-03	 2.313E+01	 4.475E+00	 4.628E-02	 6.642E+00
  13.238	 2.760E+02	 4.557E-01	 1.221E-01	-5.891E-02	 7.788E-01	 6.728E+00	 1.450E+00	 7.978E+01	 5.449E+01	-2.240E+00	 8.575E-02	 4.858E+01	 4.895E+01	 9.323E+01	 4.616E-02	-8.293E-04	 2.295E+01	 4.630E+00	 4.735E-02	 6.544E+00
  13.254	 2.813E+02	 4.371E-01	 1.006E-01	-2.372E-01	 8.405E-01	 6.755E+00	 1.948E+00	 7.927E+01	 5.490E+01	-6.572E+00	 1.402E-01	 3.857E+01	 3.898E+01	 9.330E+01	 4.610E-02	-5.374E-04	 2.302E+01	 3.684E+00	 4.779E-02	 6.489E+00
  13.269	 2.861E+02	 4.146E-01	 8.247E-02	-3.560E-01	 7.842E-01	 6.751E+00	 2.226E+00	 7.891E+01	 5.471E+01	-9.180E+00	 1.701E-01	 3.108E+01	 3.132E+01	 9.270E+01	 4.615E-02	-2.832E-04	 2.327E+01	 2.114E+00	 4.747E-02	 6.459E+00
  13.284	 2.909E+02	 3.893E-01	 6.716E-02	-3.824E-01	 6.583E-01	 6.601E+00	 2.232E+00	 7.864E+01	 5.331E+01	-9.567E+00	 1.675E-01	 2.754E+01	 2.749E+01	 9.162E+01	 4.629E-02	-6.301E-05	 2.361E+01	 4.681E-01	 4.627E-02	 6.325E+00
  13.300	 2.961E+02	 3.604E-01	 5.509E-02	-3.186E-01	 5.062E-01	 6.149E+00	 1.929E+00	 7.838E+01	 4.997E+01	-7.544E+00	 1.325E-01	 2.839E+01	 2.809E+01	 9.002E+01	 4.655E-02	 1.094E-04	 2.405E+01	-6.285E-01	 4.376E-02	 5.970E+00
  13.316	 3.009E+02	 3.347E-01	 4.938E-02	-2.337E-01	 2.895E-01	 5.433E+00	 1.480E+00	 7.813E+01	 4.538E+01	-4.459E+00	 8.850E-02	 3.170E+01	 3.139E+01	 8.834E+01	 4.686E-02	 1.813E-04	 2.460E+01	-4.692E-01	 4.048E-02	 5.413E+00
  13.331	 3.057E+02	 3.111E-01	 4.890E-02	-1.572E-01	 1.758E-02	 4.766E+00	 1.024E+00	 7.792E+01	 4.121E+01	-1.130E+00	 4.763E-02	 3.566E+01	 3.558E+01	 8.683E+01	 4.723E-02	 1.685E-04	 2.545E+01	 7.491E-01	 3.719E-02	 4.907E+00
  13.347	 3.110E+02	 2.878E-01	 5.402E-02	-4.095E-02	-1.939E-01	 4.469E+00	 4.289E-01	 7.773E+01	 3.904E+01	 3.069E+00	 7.474E-03	 4.185E+01	 4.212E+01	 8.555E+01	 4.766E-02	 7.069E-05	 2.672E+01	 2.627E+00	 3.478E-02	 4.754E+00
  13.362	 3.158E+02	 2.697E-01	 6.321E-02	 1.018E-01	-2.780E-01	 4.340E+00	-1.961E-01	 7.754E+01	 3.815E+01	 7.404E+00	-2.799E-02	 4.893E+01	 4.944E+01	 8.470E+01	 4.808E-02	-7.301E-05	 2.781E+01	 4.123E+00	 3.367E-02	 4.748E+00
  13.377	 3.206E+02	 2.548E-01	 7.621E-02	 2.336E-01	-2.337E-01	 4.324E+00	-7.858E-01	 7.731E+01	 3.803E+01	 1.130E+01	-5.770E-02	 5.466E+01	 5.527E+01	 8.398E+01	 4.853E-02	-2.515E-04	 2.857E+01	 4.989E+00	 3.323E-02	 4.821E+00
  13.393	 3.259E+02	 2.418E-01	 9.431E-02	 3.211E-01	-1.082E-01	 4.264E+00	-1.214E+00	 7.701E+01	 3.805E+01	 1.382E+01	-7.647E-02	 5.633E+01	 5.693E+01	 8.336E+01	 4.905E-02	-4.740E-04	 2.890E+01	 5.021E+00	 3.305E-02	 4.859E+00
  13.409	 3.307E+02	 2.329E-01	 1.137E-01	 3.238E-01	 4.945E-02	 4.190E+00	-1.322E+00	 7.674E+01	 3.788E+01	 1.393E+01	-7.610E-02	 5.247E+01	 5.298E+01	 8.304E+01	 4.954E-02	-6.927E-04	 2.884E+01	 4.219E+00	 3.302E-02	 4.765E+00
  13.424	 3.355E+02	 2.246E-01	 1.353E-01	 2.585E-01	 2.200E-01	 4.159E+00	-1.211E+00	 7.652E+01	 3.771E+01	 1.217E+01	-5.906E-02	 4.458E+01	 4.492E+01	 8.289E+01	 5.004E-02	-9.242E-04	 2.873E+01	 2.788E+00	 3.299E-02	 4.639E+00
  13.439	 3.403E+02	 2.145E-01	 1.587E-01	 1.389E-01	 3.585E-01	 4.121E+00	-1.002E+00	 7.636E+01	 3.755E+01	 9.459E+00	-3.197E-02	 3.501E+01	 3.515E+01	 8.270E+01	 5.052E-02	-1.169E-03	 2.879E+01	 1.000E+00	 3.289E-02	 4.516E+00
  13.455	 3.456E+02	 1.987E-01	 1.863E-01	 1.180E-02	 4.446E-01	 4.101E+00	-8.336E-01	 7.628E+01	 3.740E+01	 6.842E+00	-4.739E-03	 2.593E+01	 2.580E+01	 8.235E+01	 5.101E-02	-1.457E-03	 2.919E+01	-9.631E-01	 3.265E-02	 4.446E+00
  13.470	 3.504E+02	 1.794E-01	 2.130E-01	-5.392E-02	 4.276E-01	 4.060E+00	-8.605E-01	 7.629E+01	 3.703E+01	 5.914E+00	 6.396E-03	 2.106E+01	 2.071E+01	 8.187E+01	 5.143E-02	-1.741E-03	 2.983E+01	-2.351E+00	 3.230E-02	 4.414E+00
  13.486	 3.557E+02	 1.527E-01	 2.441E-01	-4.177E-02	 3.039E-01	 3.736E+00	-1.158E+00	 7.633E+01	 3.565E+01	 7.119E+00	-1.938E-03	 2.046E+01	 1.995E+01	 8.092E+01	 5.186E-02	-2.078E-03	 3.061E+01	-3.115E+00	 3.096E-02	 4.306E+00
  13.502	 4.530E-01	 1.295E-01	 2.735E-01	 6.526E-02	 1.931E-01	 3.153E+00	-1.670E+00	 7.637E+01	 3.247E+01	 1.042E+01	-2.950E-02	 2.304E+01	 2.249E+01	 8.039E+01	 5.220E-02	-2.403E-03	 3.127E+01	-2.989E+00	 2.879E-02	 3.963E+00
  13.517	 5.253E+00	 1.096E-01	 3.027E-01	 1.980E-01	 1.443E-01	 3.426E+00	-2.225E+00	 7.651E+01	 3.048E+01	 1.403E+01	-5.511E-02	 2.625E+01	 2.578E+01	 8.095E+01	 5.249E-02	-2.734E-03	 3.211E+01	-2.230E+00	 2.747E-02	 3.861E+00
  13.532	 1.005E+01	 8.035E-02	 3.307E-01	 2.331E-01	-9.806E-02	 3.269E+00	-2.648E+00	 7.654E+01	 2.889E+01	 1.613E+01	-6.274E-02	 2.888E+01	 2.855E+01	 8.032E+01	 5.273E-02	-3.051E-03	 3.257E+01	-1.263E+00	 2.575E-02	 3.827E+00
  13.548	 1.533E+01	 4.064E-02	 3.595E-01	 2.280E-01	-3.507E-01	 2.936E+00	-2.970E+00	 7.657E+01	 2.695E+01	 1.729E+01	-6.271E-02	 3.023E+01	 3.004E+01	 7.982E+01	 5.293E-02	-3.356E-03	 3.262E+01	-5.163E-01	 2.346E-02	 3.721E+00
  13.563	 2.013E+01	 5.065E-03	 3.834E-01	 2.388E-01	-4.247E-01	 2.718E+00	-3.197E+00	 7.669E+01	 2.466E+01	 1.800E+01	-6.105E-02	 3.001E+01	 2.980E+01	 7.992E+01	 5.306E-02	-3.576E-03	 3.240E+01	-4.651E-01	 2.163E-02	 3.499E+00
  13.579	 2.541E+01	-3.326E-02	 4.071E-01	 2.348E-01	-4.241E-01	 2.424E+00	-3.379E+00	 7.687E+01	 2.189E+01	 1.841E+01	-5.693E-02	 2.823E+01	 2.784E+01	 8.002E+01	 5.311E-02	-3.742E-03	 3.210E+01	-1.160E+00	 1.988E-02	 3.141E+00
  13.595	 3.021E+01	-6.957E-02	 4.260E-01	 2.094E-01	-4.352E-01	 2.160E+00	-3.517E+00	 7.706E+01	 2.022E+01	 1.858E+01	-5.278E-02	 2.583E+01	 2.517E+01	 7.995E+01	 5.307E-02	-3.824E-03	 3.198E+01	-2.266E+00	 1.851E-02	 2.934E+00
  13.610	 3.501E+01	-1.058E-01	 4.419E-01	 1.895E-01	-4.840E-01	 2.122E+00	-3.697E+00	 7.729E+01	 1.995E+01	 1.911E+01	-5.185E-02	 2.371E+01	 2.275E+01	 8.019E+01	 5.293E-02	-3.847E-03	 3.210E+01	-3.445E+00	 1.784E-02	 2.952E+00
  13.625	 3.981E+01	-1.400E-01	 4.547E-01	 1.972E-01	-5.848E-01	 2.360E+00	-3.964E+00	 7.757E+01	 2.116E+01	 2.040E+01	-5.656E-02	 2.286E+01	 2.165E+01	 8.082E+01	 5.270E-02	-3.823E-03	 3.234E+01	-4.307E+00	 1.828E-02	 3.185E+00
  13.641	 4.509E+01	-1.751E-01	 4.647E-01	 2.463E-01	-7.016E-01	 2.866E+00	-4.395E+00	 7.791E+01	 2.411E+01	 2.296E+01	-7.045E-02	 2.460E+01	 2.321E+01	 8.184E+01	 5.235E-02	-3.753E-03	 3.237E+01	-4.567E+00	 2.003E-02	 3.676E+00
  13.656	 4.989E+01	-2.049E-01	 4.697E-01	 3.335E-01	-7.445E-01	 3.430E+00	-4.899E+00	 7.822E+01	 2.785E+01	 2.620E+01	-9.322E-02	 2.877E+01	 2.735E+01	 8.298E+01	 5.199E-02	-3.657E-03	 3.192E+01	-4.084E+00	 2.245E-02	 4.240E+00
  13.671	 5.469E+01	-2.323E-01	 4.707E-01	 4.425E-01	-6.814E-01	 3.983E+00	-5.479E+00	 7.852E+01	 3.215E+01	 3.007E+01	-1.274E-01	 3.479E+01	 3.345E+01	 8.432E+01	 5.159E-02	-3.532E-03	 3.092E+01	-3.019E+00	 2.535E-02	 4.833E+00
  13.688	 5.997E+01	-2.580E-01	 4.668E-01	 5.771E-01	-4.819E-01	 4.559E+00	-6.104E+00	 7.882E+01	 3.733E+01	 3.432E+01	-1.773E-01	 4.169E+01	 4.055E+01	 8.601E+01	 5.114E-02	-3.357E-03	 2.935E+01	-1.463E+00	 2.882E-02	 5.470E+00
  13.703	 6.477E+01	-2.758E-01	 4.585E-01	 6.810E-01	-2.215E-01	 5.067E+00	-6.609E+00	 7.905E+01	 4.237E+01	 3.769E+01	-2.296E-01	 4.670E+01	 4.577E+01	 8.779E+01	 5.074E-02	-3.160E-03	 2.782E+01	-6.316E-02	 3.215E-02	 6.035E+00
  13.718	 6.957E+01	-2.863E-01	 4.459E-01	 7.593E-01	 6.512E-02	 5.621E+00	-7.004E+00	 7.928E+01	 4.778E+01	 4.029E+01	-2.831E-01	 4.962E+01	 4.888E+01	 8.973E+01	 5.036E-02	-2.925E-03	 2.651E+01	 9.907E-01	 3.562E-02	 6.630E+00
  13.734	 7.485E+01	-2.879E-01	 4.272E-01	 8.086E-01	 3.634E-01	 6.286E+00	-7.311E+00	 7.953E+01	 5.402E+01	 4.224E+01	-3.376E-01	 5.064E+01	 5.002E+01	 9.186E+01	 4.998E-02	-2.621E-03	 2.555E+01	 1.509E+00	 3.958E-02	 7.321E+00
  13.749	 7.965E+01	-2.803E-01	 4.066E-01	 8.394E-01	 6.079E-01	 6.923E+00	-7.510E+00	 7.980E+01	 5.973E+01	 4.350E+01	-3.828E-01	 5.060E+01	 4.998E+01	 9.361E+01	 4.969E-02	-2.314E-03	 2.511E+01	 1.403E+00	 4.320E-02	 7.965E+00
  13.764	 8.445E+01	-2.645E-01	 3.838E-01	 8.746E-01	 8.287E-01	 7.534E+00	-7.667E+00	 8.008E+01	 6.498E+01	 4.459E+01	-4.254E-01	 5.078E+01	 5.009E+01	 9.499E+01	 4.948E-02	-1.993E-03	 2.494E+01	 9.644E-01	 4.665E-02	 8.570E+00
  13.780	 8.973E+01	-2.393E-01	 3.576E-01	 9.234E-01	 1.079E+00	 8.075E+00	-7.804E+00	 8.040E+01	 6.941E+01	 4.558E+01	-4.660E-01	 5.159E+01	 5.082E+01	 9.597E+01	 4.938E-02	-1.650E-03	 2.485E+01	 5.290E-01	 4.978E-02	 9.084E+00
  13.796	 9.453E+01	-2.112E-01	 3.345E-01	 9.387E-01	 1.267E+00	 8.281E+00	-7.834E+00	 8.068E+01	 7.129E+01	 4.577E+01	-4.838E-01	 5.191E+01	 5.119E+01	 9.623E+01	 4.941E-02	-1.369E-03	 2.473E+01	 5.525E-01	 5.149E-02	 9.271E+00
  13.811	 9.933E+01	-1.803E-01	 3.135E-01	 8.993E-01	 1.378E+00	 8.253E+00	-7.708E+00	 8.096E+01	 7.128E+01	 4.478E+01	-4.715E-01	 5.075E+01	 5.023E+01	 9.588E+01	 4.957E-02	-1.129E-03	 2.466E+01	 1.101E+00	 5.194E-02	 9.216E+00
  13.827	 1.046E+02	-1.451E-01	 2.941E-01	 7.939E-01	 1.342E+00	 8.017E+00	-7.375E+00	 8.130E+01	 6.954E+01	 4.229E+01	-4.243E-01	 4.746E+01	 4.729E+01	 9.484E+01	 4.987E-02	-9.174E-04	 2.485E+01	 2.083E+00	 5.103E-02	 8.948E+00
  13.842	 1.094E+02	-1.134E-01	 2.804E-01	 6.674E-01	 1.174E+00	 7.689E+00	-6.979E+00	 8.165E+01	 6.677E+01	 3.938E+01	-3.662E-01	 4.347E+01	 4.361E+01	 9.361E+01	 5.026E-02	-7.636E-04	 2.541E+01	 2.895E+00	 4.904E-02	 8.602E+00
  13.857	 1.142E+02	-8.204E-02	 2.709E-01	 5.582E-01	 9.268E-01	 7.232E+00	-6.589E+00	 8.204E+01	 6.274E+01	 3.667E+01	-3.119E-01	 3.973E+01	 4.007E+01	 9.229E+01	 5.072E-02	-6.384E-04	 2.636E+01	 3.257E+00	 4.614E-02	 8.159E+00
  13.873	 1.195E+02	-4.770E-02	 2.654E-01	 4.825E-01	 6.270E-01	 6.696E+00	-6.223E+00	 8.250E+01	 5.712E+01	 3.438E+01	-2.651E-01	 3.688E+01	 3.724E+01	 9.078E+01	 5.131E-02	-5.295E-04	 2.775E+01	 2.988E+00	 4.232E-02	 7.543E+00
  13.889	 1.243E+02	-1.890E-02	 2.657E-01	 4.437E-01	 3.382E-01	 6.130E+00	-5.920E+00	 8.291E+01	 5.123E+01	 3.270E+01	-2.293E-01	 3.565E+01	 3.586E+01	 8.918E+01	 5.190E-02	-4.609E-04	 2.916E+01	 2.291E+00	 3.848E-02	 6.902E+00
  13.904	 1.291E+02	 5.214E-03	 2.713E-01	 4.124E-01	 6.175E-02	 5.470E+00	-5.610E+00	 8.327E+01	 4.499E+01	 3.101E+01	-1.939E-01	 3.527E+01	 3.529E+01	 8.745E+01	 5.250E-02	-4.301E-04	 3.055E+01	 1.494E+00	 3.435E-02	 6.227E+00
  13.920	 1.344E+02	 2.564E-02	 2.837E-01	 3.737E-01	-2.067E-01	 4.645E+00	-5.224E+00	 8.362E+01	 3.796E+01	 2.881E+01	-1.545E-01	 3.494E+01	 3.480E+01	 8.556E+01	 5.317E-02	-4.506E-04	 3.190E+01	 8.889E-01	 2.965E-02	 5.423E+00
  13.935	 1.392E+02	 3.914E-02	 3.002E-01	 3.197E-01	-3.891E-01	 3.878E+00	-4.829E+00	 8.390E+01	 3.184E+01	 2.645E+01	-1.195E-01	 3.412E+01	 3.395E+01	 8.403E+01	 5.374E-02	-5.221E-04	 3.294E+01	 7.606E-01	 2.542E-02	 4.689E+00
  13.950	 1.440E+02	 4.867E-02	 3.210E-01	 2.522E-01	-5.266E-01	 3.121E+00	-4.404E+00	 8.418E+01	 2.630E+01	 2.384E+01	-8.846E-02	 3.235E+01	 3.226E+01	 8.288E+01	 5.425E-02	-6.402E-04	 3.380E+01	 9.833E-01	 2.141E-02	 3.995E+00
  13.966	 1.493E+02	 5.649E-02	 3.478E-01	 1.756E-01	-6.731E-01	 2.385E+00	-3.907E+00	 8.447E+01	 2.127E+01	 2.093E+01	-6.204E-02	 2.930E+01	 2.936E+01	 8.201E+01	 5.472E-02	-8.107E-04	 3.457E+01	 1.355E+00	 1.758E-02	 3.331E+00
  13.982	 1.541E+02	 6.256E-02	 3.750E-01	 1.277E-01	-7.891E-01	 1.916E+00	-3.474E+00	 8.472E+01	 1.810E+01	 1.857E+01	-4.573E-02	 2.622E+01	 2.636E+01	 8.152E+01	 5.502E-02	-9.873E-04	 3.514E+01	 1.485E+00	 1.487E-02	 2.916E+00
  13.997	 1.589E+02	 6.887E-02	 4.043E-01	 1.052E-01	-8.717E-01	 1.606E+00	-3.081E+00	 8.494E+01	 1.610E+01	 1.669E+01	-3.577E-02	 2.378E+01	 2.389E+01	 8.110E+01	 5.520E-02	-1.172E-03	 3.554E+01	 1.206E+00	 1.296E-02	 2.635E+00
  14.013	 1.641E+02	 7.684E-02	 4.389E-01	 1.169E-01	-8.679E-01	 1.416E+00	-2.702E+00	 8.513E+01	 1.505E+01	 1.516E+01	-2.998E-02	 2.262E+01	 2.255E+01	 8.060E+01	 5.525E-02	-1.376E-03	 3.569E+01	 4.380E-01	 1.173E-02	 2.488E+00
  14.028	 1.689E+02	 8.551E-02	 4.725E-01	 1.329E-01	-7.912E-01	 1.293E+00	-2.380E+00	 8.524E+01	 1.480E+01	 1.397E+01	-2.738E-02	 2.298E+01	 2.267E+01	 8.003E+01	 5.514E-02	-1.562E-03	 3.552E+01	-4.465E-01	 1.138E-02	 2.389E+00
  14.043	 1.737E+02	 9.473E-02	 5.076E-01	 1.484E-01	-7.297E-01	 1.259E+00	-2.016E+00	 8.530E+01	 1.519E+01	 1.242E+01	-2.548E-02	 2.396E+01	 2.340E+01	 7.961E+01	 5.490E-02	-1.752E-03	 3.512E+01	-1.196E+00	 1.160E-02	 2.282E+00
  14.059	 1.790E+02	 1.054E-01	 5.472E-01	 1.958E-01	-2.801E-01	 1.526E+00	-1.676E+00	 8.528E+01	 1.644E+01	 1.070E+01	-2.321E-02	 2.553E+01	 2.477E+01	 7.938E+01	 5.447E-02	-1.969E-03	 3.450E+01	-1.630E+00	 1.244E-02	 2.376E+00
  14.075	 1.838E+02	 1.152E-01	 5.831E-01	 6.983E-02	-2.324E-01	 1.601E+00	-1.340E+00	 8.525E+01	 1.764E+01	 8.394E+00	-1.507E-02	 2.604E+01	 2.521E+01	 7.943E+01	 5.396E-02	-2.167E-03	 3.374E+01	-1.574E+00	 1.363E-02	 2.375E+00
  14.090	 1.886E+02	 1.252E-01	 6.176E-01	-3.045E-02	-3.532E-01	 2.099E+00	-9.663E-01	 8.520E+01	 2.140E+01	 5.915E+00	-4.913E-03	 2.542E+01	 2.459E+01	 8.014E+01	 5.332E-02	-2.357E-03	 3.296E+01	-1.254E+00	 1.522E-02	 2.849E+00
  14.106	 1.939E+02	 1.430E-01	 6.527E-01	-4.388E-02	-4.310E-01	 2.689E+00	-6.867E-01	 8.519E+01	 2.535E+01	 4.921E+00	-8.550E-04	 2.558E+01	 2.474E+01	 8.036E+01	 5.252E-02	-2.539E-03	 3.180E+01	-1.002E+00	 1.799E-02	 3.404E+00
  14.121	 1.987E+02	 1.618E-01	 6.817E-01	 5.670E-03	-4.638E-01	 3.260E+00	-5.963E-01	 8.511E+01	 2.891E+01	 5.347E+00	-3.574E-03	 2.751E+01	 2.655E+01	 8.060E+01	 5.172E-02	-2.666E-03	 3.059E+01	-1.055E+00	 2.084E-02	 3.891E+00
  14.136	 2.035E+02	 1.806E-01	 7.080E-01	 7.844E-02	-4.228E-01	 3.688E+00	-5.566E-01	 8.496E+01	 3.209E+01	 6.229E+00	-9.942E-03	 3.092E+01	 2.976E+01	 8.088E+01	 5.087E-02	-2.754E-03	 2.926E+01	-1.336E+00	 2.368E-02	 4.265E+00
  14.152	 2.088E+02	 1.999E-01	 7.338E-01	 1.395E-01	-2.834E-01	 4.028E+00	-4.827E-01	 8.474E+01	 3.532E+01	 6.853E+00	-1.604E-02	 3.549E+01	 3.408E+01	 8.141E+01	 4.991E-02	-2.809E-03	 2.786E+01	-1.680E+00	 2.681E-02	 4.572E+00
  14.168	 2.136E+02	 2.152E-01	 7.543E-01	 1.610E-01	-8.507E-02	 4.346E+00	-3.400E-01	 8.451E+01	 3.846E+01	 6.637E+00	-1.585E-02	 3.934E+01	 3.775E+01	 8.226E+01	 4.902E-02	-2.826E-03	 2.679E+01	-1.794E+00	 2.989E-02	 4.819E+00
  14.183	 2.184E+02	 2.276E-01	 7.712E-01	 1.518E-01	 1.583E-01	 4.765E+00	-1.228E-01	 8.426E+01	 4.211E+01	 5.673E+00	-7.678E-03	 4.217E+01	 4.048E+01	 8.346E+01	 4.813E-02	-2.815E-03	 2.596E+01	-1.614E+00	 3.334E-02	 5.115E+00
  14.199	 2.237E+02	 2.364E-01	 7.848E-01	 1.161E-01	 4.406E-01	 5.362E+00	 1.432E-01	 8.394E+01	 4.678E+01	 4.198E+00	 9.895E-03	 4.404E+01	 4.235E+01	 8.503E+01	 4.719E-02	-2.770E-03	 2.519E+01	-1.143E+00	 3.754E-02	 5.615E+00
  14.214	 2.285E+02	 2.387E-01	 7.922E-01	 7.735E-02	 6.490E-01	 5.938E+00	 4.025E-01	 8.362E+01	 5.122E+01	 2.764E+00	 3.066E-02	 4.485E+01	 4.321E+01	 8.663E+01	 4.638E-02	-2.696E-03	 2.444E+01	-6.397E-01	 4.147E-02	 6.108E+00
  14.229	 2.333E+02	 2.340E-01	 7.945E-01	 3.702E-02	 7.674E-01	 6.473E+00	 6.383E-01	 8.327E+01	 5.549E+01	 1.534E+00	 5.237E-02	 4.529E+01	 4.370E+01	 8.830E+01	 4.567E-02	-2.588E-03	 2.351E+01	-2.336E-01	 4.516E-02	 6.616E+00
  14.245	 2.385E+02	 2.206E-01	 7.914E-01	 1.054E-02	 8.088E-01	 7.037E+00	 8.518E-01	 8.285E+01	 5.955E+01	 5.559E-01	 7.188E-02	 4.570E+01	 4.414E+01	 9.000E+01	 4.500E-02	-2.430E-03	 2.231E+01	 1.994E-03	 4.867E-02	 7.103E+00
  14.261	 2.433E+02	 2.018E-01	 7.841E-01	 1.214E-03	 8.239E-01	 7.479E+00	 9.995E-01	 8.245E+01	 6.221E+01	-4.434E-02	 8.419E-02	 4.609E+01	 4.454E+01	 9.134E+01	 4.454E-02	-2.257E-03	 2.117E+01	 4.708E-02	 5.116E-02	 7.442E+00
  14.276	 2.481E+02	 1.770E-01	 7.733E-01	-8.829E-03	 8.470E-01	 7.716E+00	 1.150E+00	 8.203E+01	 6.354E+01	-7.256E-01	 9.497E-02	 4.625E+01	 4.471E+01	 9.254E+01	 4.421E-02	-2.063E-03	 2.020E+01	 4.862E-02	 5.273E-02	 7.618E+00
  14.292	 2.534E+02	 1.433E-01	 7.584E-01	-5.114E-02	 8.489E-01	 7.679E+00	 1.364E+00	 8.155E+01	 6.334E+01	-1.968E+00	 1.110E-01	 4.565E+01	 4.418E+01	 9.369E+01	 4.401E-02	-1.838E-03	 1.958E+01	 1.536E-01	 5.325E-02	 7.569E+00
  14.307	 2.582E+02	 1.081E-01	 7.432E-01	-1.233E-01	 7.639E-01	 7.471E+00	 1.607E+00	 8.112E+01	 6.207E+01	-3.597E+00	 1.290E-01	 4.412E+01	 4.277E+01	 9.449E+01	 4.397E-02	-1.634E-03	 1.962E+01	 4.094E-01	 5.276E-02	 7.375E+00
  14.322	 2.630E+02	 7.051E-02	 7.273E-01	-1.948E-01	 6.697E-01	 7.217E+00	 1.844E+00	 8.073E+01	 6.008E+01	-5.265E+00	 1.428E-01	 4.208E+01	 4.089E+01	 9.487E+01	 4.406E-02	-1.435E-03	 2.025E+01	 7.645E-01	 5.157E-02	 7.113E+00
  14.338	 2.683E+02	 2.785E-02	 7.102E-01	-2.496E-01	 5.579E-01	 6.845E+00	 2.023E+00	 8.033E+01	 5.706E+01	-6.552E+00	 1.460E-01	 4.006E+01	 3.906E+01	 9.470E+01	 4.430E-02	-1.226E-03	 2.140E+01	 1.141E+00	 4.959E-02	 6.738E+00
  14.354	 2.731E+02	-1.135E-02	 6.960E-01	-2.662E-01	 4.536E-01	 6.411E+00	 2.067E+00	 7.999E+01	 5.370E+01	-6.890E+00	 1.362E-01	 3.896E+01	 3.809E+01	 9.401E+01	 4.465E-02	-1.049E-03	 2.260E+01	 1.387E+00	 4.720E-02	 6.335E+00
  14.369	 2.779E+02	-4.970E-02	 6.843E-01	-2.527E-01	 3.482E-01	 5.916E+00	 2.005E+00	 7.966E+01	 4.989E+01	-6.451E+00	 1.168E-01	 3.848E+01	 3.771E+01	 9.289E+01	 4.510E-02	-8.894E-04	 2.373E+01	 1.532E+00	 4.437E-02	 5.890E+00
  14.385	 2.832E+02	-8.944E-02	 6.752E-01	-2.153E-01	 2.353E-01	 5.338E+00	 1.849E+00	 7.931E+01	 4.542E+01	-5.396E+00	 9.106E-02	 3.818E+01	 3.750E+01	 9.134E+01	 4.571E-02	-7.410E-04	 2.478E+01	 1.625E+00	 4.094E-02	 5.382E+00
  14.400	 2.880E+02	-1.226E-01	 6.713E-01	-1.748E-01	 1.498E-01	 4.839E+00	 1.687E+00	 7.901E+01	 4.137E+01	-4.380E+00	 6.985E-02	 3.762E+01	 3.701E+01	 8.993E+01	 4.634E-02	-6.360E-04	 2.558E+01	 1.699E+00	 3.771E-02	 4.928E+00
  14.415	 2.928E+02	-1.529E-01	 6.718E-01	-1.550E-01	 4.690E-02	 4.315E+00	 1.565E+00	 7.872E+01	 3.735E+01	-3.718E+00	 5.464E-02	 3.638E+01	 3.585E+01	 8.869E+01	 4.701E-02	-5.631E-04	 2.630E+01	 1.779E+00	 3.449E-02	 4.457E+00
  14.431	 2.981E+02	-1.844E-01	 6.780E-01	-1.651E-01	-7.218E-02	 3.663E+00	 1.488E+00	 7.839E+01	 3.331E+01	-3.517E+00	 4.564E-02	 3.415E+01	 3.373E+01	 8.746E+01	 4.778E-02	-5.216E-04	 2.712E+01	 1.848E+00	 3.091E-02	 3.943E+00
  14.447	 3.029E+02	-2.101E-01	 6.889E-01	-1.792E-01	-1.708E-01	 3.132E+00	 1.387E+00	 7.812E+01	 3.033E+01	-3.278E+00	 3.963E-02	 3.182E+01	 3.145E+01	 8.616E+01	 4.847E-02	-5.184E-04	 2.797E+01	 1.829E+00	 2.780E-02	 3.562E+00
  14.462	 3.077E+02	-2.304E-01	 7.049E-01	-1.700E-01	-2.315E-01	 2.754E+00	 1.209E+00	 7.791E+01	 2.796E+01	-2.498E+00	 3.155E-02	 2.979E+01	 2.942E+01	 8.472E+01	 4.914E-02	-5.452E-04	 2.894E+01	 1.670E+00	 2.514E-02	 3.265E+00
  14.478	 3.129E+02	-2.453E-01	 7.279E-01	-1.263E-01	-2.556E-01	 2.467E+00	 9.034E-01	 7.772E+01	 2.601E+01	-8.354E-01	 1.981E-02	 2.850E+01	 2.807E+01	 8.313E+01	 4.984E-02	-6.067E-04	 3.001E+01	 1.325E+00	 2.288E-02	 3.022E+00
  14.493	 3.177E+02	-2.519E-01	 7.531E-01	-6.842E-02	-2.571E-01	 2.298E+00	 5.544E-01	 7.757E+01	 2.488E+01	 1.222E+00	 7.972E-03	 2.841E+01	 2.787E+01	 8.194E+01	 5.042E-02	-6.901E-04	 3.088E+01	 9.328E-01	 2.144E-02	 2.929E+00
  14.508	 3.225E+02	-2.518E-01	 7.816E-01	-6.341E-03	-2.526E-01	 2.211E+00	 1.863E-01	 7.740E+01	 2.439E+01	 3.422E+00	-3.458E-03	 2.915E+01	 2.848E+01	 8.123E+01	 5.094E-02	-8.000E-04	 3.156E+01	 5.807E-01	 2.059E-02	 2.909E+00
  14.524	 3.278E+02	-2.444E-01	 8.156E-01	 5.234E-02	-2.451E-01	 2.196E+00	-2.020E-01	 7.721E+01	 2.445E+01	 5.658E+00	-1.432E-02	 3.044E+01	 2.968E+01	 8.104E+01	 5.145E-02	-9.509E-04	 3.201E+01	 3.541E-01	 2.035E-02	 2.969E+00
  14.540	 3.326E+02	-2.312E-01	 8.483E-01	 9.194E-02	-2.049E-01	 2.337E+00	-5.347E-01	 7.704E+01	 2.517E+01	 7.378E+00	-2.206E-02	 3.164E+01	 3.082E+01	 8.130E+01	 5.184E-02	-1.113E-03	 3.215E+01	 3.258E-01	 2.074E-02	 3.115E+00
  14.555	 3.374E+02	-2.132E-01	 8.821E-01	 1.130E-01	-1.750E-01	 2.573E+00	-8.341E-01	 7.689E+01	 2.628E+01	 8.717E+00	-2.753E-02	 3.244E+01	 3.160E+01	 8.179E+01	 5.216E-02	-1.294E-03	 3.206E+01	 4.135E-01	 2.162E-02	 3.308E+00
  14.571	 3.427E+02	-1.900E-01	 9.199E-01	 1.194E-01	-1.500E-01	 2.846E+00	-1.136E+00	 7.674E+01	 2.782E+01	 9.898E+00	-3.178E-02	 3.265E+01	 3.180E+01	 8.223E+01	 5.244E-02	-1.504E-03	 3.177E+01	 5.084E-01	 2.294E-02	 3.562E+00
  14.586	 3.475E+02	-1.673E-01	 9.545E-01	 1.226E-01	-1.569E-01	 3.115E+00	-1.406E+00	 7.665E+01	 2.939E+01	 1.097E+01	-3.611E-02	 3.231E+01	 3.143E+01	 8.252E+01	 5.263E-02	-1.698E-03	 3.148E+01	 4.602E-01	 2.433E-02	 3.805E+00
  14.601	 3.523E+02	-1.444E-01	 9.890E-01	 1.356E-01	-1.851E-01	 3.322E+00	-1.694E+00	 7.659E+01	 3.092E+01	 1.229E+01	-4.287E-02	 3.165E+01	 3.067E+01	 8.261E+01	 5.274E-02	-1.884E-03	 3.125E+01	 2.071E-01	 2.581E-02	 4.030E+00
  14.617	 3.576E+02	-1.194E-01	 1.026E+00	 1.693E-01	-2.147E-01	 3.451E+00	-2.048E+00	 7.654E+01	 3.233E+01	 1.415E+01	-5.444E-02	 3.122E+01	 3.008E+01	 8.259E+01	 5.280E-02	-2.075E-03	 3.114E+01	-3.106E-01	 2.689E-02	 4.228E+00
  14.633	 2.371E+00	-9.457E-02	 1.058E+00	 2.310E-01	-1.842E-01	 3.386E+00	-2.432E+00	 7.651E+01	 3.269E+01	 1.639E+01	-7.078E-02	 3.140E+01	 3.006E+01	 8.274E+01	 5.279E-02	-2.232E-03	 3.115E+01	-8.801E-01	 2.698E-02	 4.263E+00
  14.648	 7.171E+00	-6.648E-02	 1.087E+00	 3.006E-01	-7.302E-02	 3.833E+00	-2.795E+00	 7.656E+01	 3.388E+01	 1.849E+01	-8.658E-02	 3.099E+01	 2.944E+01	 8.368E+01	 5.272E-02	-2.373E-03	 3.136E+01	-1.349E+00	 2.789E-02	 4.436E+00
  14.664	 1.245E+01	-4.145E-02	 1.116E+00	 3.060E-01	-5.965E-02	 4.086E+00	-3.114E+00	 7.658E+01	 3.582E+01	 1.974E+01	-9.428E-02	 3.100E+01	 2.930E+01	 8.388E+01	 5.259E-02	-2.506E-03	 3.141E+01	-1.701E+00	 2.895E-02	 4.713E+00
  14.679	 1.725E+01	-2.371E-02	 1.139E+00	 2.996E-01	-6.123E-02	 4.243E+00	-3.382E+00	 7.664E+01	 3.775E+01	 2.062E+01	-1.002E-01	 3.221E+01	 3.039E+01	 8.398E+01	 5.244E-02	-2.603E-03	 3.115E+01	-1.846E+00	 2.962E-02	 4.986E+00
  14.694	 2.205E+01	-6.715E-03	 1.160E+00	 3.224E-01	-7.996E-03	 4.353E+00	-3.706E+00	 7.675E+01	 3.914E+01	 2.207E+01	-1.129E-01	 3.434E+01	 3.243E+01	 8.433E+01	 5.228E-02	-2.676E-03	 3.059E+01	-1.795E+00	 3.024E-02	 5.150E+00
  14.710	 2.733E+01	 1.267E-02	 1.180E+00	 3.858E-01	 1.150E-01	 4.430E+00	-4.131E+00	 7.692E+01	 4.012E+01	 2.445E+01	-1.364E-01	 3.716E+01	 3.519E+01	 8.492E+01	 5.209E-02	-2.725E-03	 2.982E+01	-1.526E+00	 3.090E-02	 5.231E+00
  14.726	 3.213E+01	 3.037E-02	 1.195E+00	 4.600E-01	 2.270E-01	 4.458E+00	-4.555E+00	 7.707E+01	 4.092E+01	 2.700E+01	-1.632E-01	 3.941E+01	 3.740E+01	 8.562E+01	 5.190E-02	-2.737E-03	 2.918E+01	-1.162E+00	 3.143E-02	 5.300E+00
  14.741	 3.693E+01	 4.869E-02	 1.207E+00	 5.367E-01	 3.284E-01	 4.548E+00	-4.972E+00	 7.721E+01	 4.199E+01	 2.953E+01	-1.912E-01	 4.082E+01	 3.877E+01	 8.659E+01	 5.171E-02	-2.713E-03	 2.879E+01	-7.952E-01	 3.199E-02	 5.431E+00
  14.757	 4.221E+01	 7.082E-02	 1.217E+00	 6.046E-01	 4.043E-01	 4.761E+00	-5.378E+00	 7.738E+01	 4.353E+01	 3.186E+01	-2.180E-01	 4.117E+01	 3.909E+01	 8.789E+01	 5.148E-02	-2.641E-03	 2.865E+01	-5.192E-01	 3.286E-02	 5.667E+00
  14.772	 4.701E+01	 9.327E-02	 1.222E+00	 6.349E-01	 4.419E-01	 5.041E+00	-5.684E+00	 7.756E+01	 4.517E+01	 3.337E+01	-2.349E-01	 4.060E+01	 3.847E+01	 8.914E+01	 5.128E-02	-2.532E-03	 2.868E+01	-4.531E-01	 3.395E-02	 5.927E+00
  14.787	 5.181E+01	 1.176E-01	 1.223E+00	 6.346E-01	 4.487E-01	 5.360E+00	-5.911E+00	 7.779E+01	 4.684E+01	 3.422E+01	-2.432E-01	 3.971E+01	 3.751E+01	 9.017E+01	 5.109E-02	-2.383E-03	 2.867E+01	-5.514E-01	 3.516E-02	 6.205E+00
  14.803	 5.709E+01	 1.450E-01	 1.220E+00	 6.091E-01	 4.113E-01	 5.634E+00	-6.090E+00	 7.809E+01	 4.836E+01	 3.462E+01	-2.452E-01	 3.892E+01	 3.663E+01	 9.089E+01	 5.091E-02	-2.178E-03	 2.847E+01	-7.414E-01	 3.625E-02	 6.466E+00
  14.819	 6.189E+01	 1.699E-01	 1.214E+00	 5.838E-01	 3.688E-01	 5.759E+00	-6.237E+00	 7.839E+01	 4.913E+01	 3.495E+01	-2.458E-01	 3.868E+01	 3.634E+01	 9.138E+01	 5.079E-02	-1.963E-03	 2.808E+01	-8.363E-01	 3.672E-02	 6.615E+00
  14.834	 6.669E+01	 1.950E-01	 1.206E+00	 5.776E-01	 3.263E-01	 5.728E+00	-6.398E+00	 7.872E+01	 4.908E+01	 3.558E+01	-2.501E-01	 3.877E+01	 3.643E+01	 9.191E+01	 5.071E-02	-1.732E-03	 2.761E+01	-7.187E-01	 3.659E-02	 6.637E+00
  14.850	 7.197E+01	 2.235E-01	 1.196E+00	 5.966E-01	 2.781E-01	 5.573E+00	-6.609E+00	 7.911E+01	 4.823E+01	 3.672E+01	-2.600E-01	 3.879E+01	 3.653E+01	 9.278E+01	 5.066E-02	-1.466E-03	 2.721E+01	-2.755E-01	 3.583E-02	 6.541E+00
  14.865	 7.677E+01	 2.503E-01	 1.186E+00	 6.391E-01	 2.705E-01	 5.416E+00	-6.817E+00	 7.948E+01	 4.710E+01	 3.802E+01	-2.712E-01	 3.835E+01	 3.623E+01	 9.384E+01	 5.064E-02	-1.220E-03	 2.715E+01	 3.482E-01	 3.482E-02	 6.422E+00
  14.880	 8.157E+01	 2.774E-01	 1.175E+00	 6.793E-01	 2.691E-01	 5.283E+00	-6.987E+00	 7.987E+01	 4.586E+01	 3.912E+01	-2.788E-01	 3.738E+01	 3.542E+01	 9.481E+01	 5.064E-02	-9.723E-04	 2.738E+01	 1.028E+00	 3.370E-02	 6.294E+00
  14.896	 8.685E+01	 3.052E-01	 1.163E+00	 6.965E-01	 2.381E-01	 5.109E+00	-7.070E+00	 8.029E+01	 4.453E+01	 3.960E+01	-2.778E-01	 3.597E+01	 3.417E+01	 9.529E+01	 5.067E-02	-6.973E-04	 2.785E+01	 1.622E+00	 3.235E-02	 6.147E+00
  14.912	 9.165E+01	 3.278E-01	 1.154E+00	 6.853E-01	 1.953E-01	 4.926E+00	-7.030E+00	 8.067E+01	 4.328E+01	 3.925E+01	-2.684E-01	 3.488E+01	 3.317E+01	 9.498E+01	 5.071E-02	-4.474E-04	 2.831E+01	 1.888E+00	 3.102E-02	 5.995E+00
  14.927	 9.645E+01	 3.482E-01	 1.146E+00	 6.592E-01	 1.702E-01	 4.707E+00	-6.907E+00	 8.105E+01	 4.180E+01	 3.833E+01	-2.530E-01	 3.429E+01	 3.262E+01	 9.407E+01	 5.077E-02	-2.032E-04	 2.867E+01	 1.902E+00	 2.963E-02	 5.816E+00
  14.943	 1.017E+02	 3.682E-01	 1.141E+00	 6.187E-01	 1.679E-01	 4.403E+00	-6.687E+00	 8.147E+01	 3.972E+01	 3.685E+01	-2.314E-01	 3.413E+01	 3.247E+01	 9.246E+01	 5.085E-02	 4.770E-05	 2.891E+01	 1.781E+00	 2.803E-02	 5.540E+00
  14.958	 1.065E+02	 3.838E-01	 1.141E+00	 5.757E-01	 1.709E-01	 4.101E+00	-6.440E+00	 8.184E+01	 3.761E+01	 3.521E+01	-2.092E-01	 3.398E+01	 3.233E+01	 9.082E+01	 5.092E-02	 2.486E-04	 2.905E+01	 1.729E+00	 2.653E-02	 5.247E+00
  14.973	 1.113E+02	 3.966E-01	 1.145E+00	 5.244E-01	 1.322E-01	 3.787E+00	-6.167E+00	 8.220E+01	 3.539E+01	 3.344E+01	-1.862E-01	 3.330E+01	 3.171E+01	 8.931E+01	 5.099E-02	 4.151E-04	 2.921E+01	 1.842E+00	 2.516E-02	 4.935E+00
  14.989	 1.166E+02	 4.081E-01	 1.154E+00	 4.692E-01	 4.912E-02	 3.576E+00	-5.859E+00	 8.261E+01	 3.328E+01	 3.152E+01	-1.624E-01	 3.200E+01	 3.053E+01	 8.788E+01	 5.103E-02	 5.540E-04	 2.950E+01	 2.141E+00	 2.418E-02	 4.676E+00
  15.005	 1.214E+02	 4.147E-01	 1.168E+00	 4.225E-01	-6.209E-02	 3.622E+00	-5.572E+00	 8.299E+01	 3.215E+01	 2.982E+01	-1.425E-01	 3.101E+01	 2.962E+01	 8.661E+01	 5.103E-02	 6.403E-04	 2.985E+01	 2.442E+00	 2.402E-02	 4.597E+00
  15.020	 1.262E+02	 4.149E-01	 1.187E+00	 3.742E-01	-2.164E-01	 3.741E+00	-5.285E+00	 8.332E+01	 3.168E+01	 2.813E+01	-1.249E-01	 3.092E+01	 2.955E+01	 8.531E+01	 5.100E-02	 6.918E-04	 3.017E+01	 2.621E+00	 2.437E-02	 4.610E+00
  15.036	 1.315E+02	 4.058E-01	 1.212E+00	 3.311E-01	-3.769E-01	 3.853E+00	-4.992E+00	 8.364E+01	 3.166E+01	 2.650E+01	-1.105E-01	 3.223E+01	 3.080E+01	 8.402E+01	 5.094E-02	 7.116E-04	 3.030E+01	 2.594E+00	 2.511E-02	 4.675E+00
  15.051	 1.363E+02	 3.894E-01	 1.239E+00	 3.135E-01	-4.578E-01	 3.957E+00	-4.770E+00	 8.391E+01	 3.195E+01	 2.543E+01	-1.030E-01	 3.446E+01	 3.291E+01	 8.320E+01	 5.085E-02	 6.968E-04	 3.018E+01	 2.413E+00	 2.606E-02	 4.742E+00
  15.066	 1.411E+02	 3.661E-01	 1.268E+00	 3.167E-01	-4.516E-01	 4.042E+00	-4.584E+00	 8.416E+01	 3.245E+01	 2.473E+01	-1.001E-01	 3.686E+01	 3.518E+01	 8.285E+01	 5.074E-02	 6.487E-04	 2.986E+01	 2.213E+00	 2.722E-02	 4.796E+00
  15.082	 1.464E+02	 3.329E-01	 1.304E+00	 3.285E-01	-3.620E-01	 4.126E+00	-4.372E+00	 8.440E+01	 3.344E+01	 2.401E+01	-9.986E-02	 3.866E+01	 3.689E+01	 8.296E+01	 5.059E-02	 5.558E-04	 2.942E+01	 2.099E+00	 2.858E-02	 4.870E+00
  15.098	 1.512E+02	 2.965E-01	 1.337E+00	 3.345E-01	-2.491E-01	 4.194E+00	-4.147E+00	 8.458E+01	 3.490E+01	 2.318E+01	-9.998E-02	 3.887E+01	 3.707E+01	 8.346E+01	 5.043E-02	 4.363E-04	 2.902E+01	 2.116E+00	 2.969E-02	 4.976E+00
  15.113	 1.560E+02	 2.568E-01	 1.372E+00	 3.320E-01	-1.211E-01	 4.270E+00	-3.875E+00	 8.472E+01	 3.675E+01	 2.209E+01	-9.904E-02	 3.775E+01	 3.596E+01	 8.401E+01	 5.024E-02	 2.888E-04	 2.867E+01	 2.159E+00	 3.065E-02	 5.135E+00
  15.129	 1.612E+02	 2.126E-01	 1.410E+00	 3.230E-01	 3.255E-02	 4.407E+00	-3.524E+00	 8.483E+01	 3.898E+01	 2.062E+01	-9.546E-02	 3.563E+01	 3.385E+01	 8.436E+01	 5.003E-02	 1.030E-04	 2.833E+01	 2.077E+00	 3.159E-02	 5.323E+00
  15.144	 1.660E+02	 1.743E-01	 1.447E+00	 2.997E-01	 1.318E-01	 4.453E+00	-3.145E+00	 8.490E+01	 4.067E+01	 1.893E+01	-8.852E-02	 3.363E+01	 3.181E+01	 8.436E+01	 4.984E-02	-7.904E-05	 2.804E+01	 1.783E+00	 3.224E-02	 5.396E+00
  15.159	 1.708E+02	 1.390E-01	 1.484E+00	 2.958E-01	 1.901E-01	 4.487E+00	-2.718E+00	 8.492E+01	 4.182E+01	 1.697E+01	-7.982E-02	 3.222E+01	 3.029E+01	 8.413E+01	 4.964E-02	-2.679E-04	 2.778E+01	 1.272E+00	 3.260E-02	 5.392E+00
  15.175	 1.761E+02	 1.048E-01	 1.525E+00	 3.322E-01	 6.001E-01	 4.349E+00	-2.247E+00	 8.493E+01	 4.114E+01	 1.479E+01	-7.019E-02	 3.191E+01	 2.979E+01	 8.342E+01	 4.944E-02	-4.801E-04	 2.750E+01	 5.694E-01	 3.254E-02	 5.102E+00
  15.191	 1.809E+02	 7.381E-02	 1.562E+00	 1.685E-01	 6.090E-01	 3.863E+00	-1.844E+00	 8.485E+01	 3.976E+01	 1.203E+01	-4.169E-02	 3.195E+01	 2.964E+01	 8.346E+01	 4.926E-02	-6.764E-04	 2.743E+01	 1.911E-02	 3.159E-02	 4.738E+00
  15.206	 1.857E+02	 4.671E-02	 1.598E+00	 3.690E-02	 4.121E-01	 3.887E+00	-1.477E+00	 8.479E+01	 4.063E+01	 9.449E+00	-1.471E-02	 3.142E+01	 2.896E+01	 8.387E+01	 4.907E-02	-8.732E-04	 2.768E+01	-3.164E-01	 3.045E-02	 4.949E+00
  15.221	 1.905E+02	 3.495E-02	 1.632E+00	 2.013E-02	 2.200E-01	 4.267E+00	-1.272E+00	 8.483E+01	 4.098E+01	 8.649E+00	-1.091E-02	 3.128E+01	 2.874E+01	 8.311E+01	 4.888E-02	-1.064E-03	 2.783E+01	-4.923E-01	 3.039E-02	 5.070E+00
  15.237	 1.958E+02	 3.592E-02	 1.667E+00	 5.414E-02	 2.355E-02	 4.704E+00	-1.189E+00	 8.481E+01	 4.104E+01	 8.959E+00	-1.773E-02	 3.232E+01	 2.971E+01	 8.235E+01	 4.870E-02	-1.258E-03	 2.779E+01	-5.741E-01	 3.096E-02	 5.217E+00
  15.252	 2.006E+02	 4.306E-02	 1.698E+00	 7.300E-02	-1.745E-01	 4.895E+00	-1.114E+00	 8.470E+01	 4.097E+01	 9.171E+00	-2.141E-02	 3.414E+01	 3.145E+01	 8.212E+01	 4.856E-02	-1.414E-03	 2.752E+01	-5.787E-01	 3.122E-02	 5.352E+00
  15.268	 2.059E+02	 5.711E-02	 1.730E+00	 7.036E-02	-3.122E-01	 5.000E+00	-9.904E-01	 8.454E+01	 4.075E+01	 8.931E+00	-2.043E-02	 3.648E+01	 3.368E+01	 8.207E+01	 4.843E-02	-1.556E-03	 2.706E+01	-5.347E-01	 3.128E-02	 5.449E+00
  15.284	 2.107E+02	 7.597E-02	 1.758E+00	 5.354E-02	-3.569E-01	 5.077E+00	-7.905E-01	 8.439E+01	 4.046E+01	 8.085E+00	-1.522E-02	 3.810E+01	 3.520E+01	 8.221E+01	 4.835E-02	-1.653E-03	 2.665E+01	-4.768E-01	 3.154E-02	 5.442E+00
  15.299	 2.155E+02	 9.746E-02	 1.783E+00	 1.699E-02	-3.605E-01	 5.159E+00	-5.075E-01	 8.423E+01	 4.049E+01	 6.582E+00	-5.113E-03	 3.889E+01	 3.591E+01	 8.286E+01	 4.828E-02	-1.714E-03	 2.642E+01	-4.401E-01	 3.203E-02	 5.412E+00
  15.314	 2.203E+02	 1.182E-01	 1.805E+00	-1.967E-02	-2.972E-01	 5.262E+00	-1.794E-01	 8.404E+01	 4.105E+01	 4.748E+00	 7.606E-03	 3.899E+01	 3.591E+01	 8.385E+01	 4.823E-02	-1.735E-03	 2.641E+01	-4.584E-01	 3.263E-02	 5.425E+00
  15.330	 2.256E+02	 1.381E-01	 1.826E+00	-4.785E-02	-1.510E-01	 5.337E+00	 1.660E-01	 8.379E+01	 4.192E+01	 2.900E+00	 2.095E-02	 3.871E+01	 3.552E+01	 8.498E+01	 4.821E-02	-1.712E-03	 2.653E+01	-5.511E-01	 3.332E-02	 5.455E+00
  15.345	 2.304E+02	 1.531E-01	 1.840E+00	-5.640E-02	 2.786E-02	 5.362E+00	 4.352E-01	 8.352E+01	 4.270E+01	 1.585E+00	 3.088E-02	 3.842E+01	 3.515E+01	 8.589E+01	 4.823E-02	-1.649E-03	 2.664E+01	-6.574E-01	 3.386E-02	 5.470E+00
[...]
  68.713	 2.818E+01	 3.543E-01	 4.430E+00	 4.934E-01	 1.564E-01	 4.603E+00	-4.556E+00	 7.692E+01	 4.107E+01	 2.790E+01	-1.716E-01	 4.575E+01	 3.847E+01	 8.665E+01	 5.171E-02	 1.534E-03	 2.929E+01	 1.315E+00	 3.155E-02	 5.460E+00
  68.728	 3.298E+01	 3.449E-01	 4.425E+00	 5.771E-01	 3.812E-01	 4.542E+00	-4.966E+00	 7.699E+01	 4.120E+01	 3.023E+01	-1.965E-01	 4.644E+01	 3.917E+01	 8.784E+01	 5.162E-02	 1.428E-03	 2.851E+01	 1.796E+00	 3.143E-02	 5.455E+00
  68.743	 3.778E+01	 3.384E-01	 4.418E+00	 5.898E-01	 5.043E-01	 4.495E+00	-5.206E+00	 7.708E+01	 4.121E+01	 3.112E+01	-2.044E-01	 4.466E+01	 3.747E+01	 8.880E+01	 5.153E-02	 1.348E-03	 2.807E+01	 2.254E+00	 3.137E-02	 5.433E+00
  68.758	 4.258E+01	 3.358E-01	 4.407E+00	 5.417E-01	 5.054E-01	 4.558E+00	-5.297E+00	 7.725E+01	 4.133E+01	 3.073E+01	-1.956E-01	 4.123E+01	 3.410E+01	 8.932E+01	 5.142E-02	 1.306E-03	 2.811E+01	 2.419E+00	 3.153E-02	 5.460E+00
  68.773	 4.738E+01	 3.363E-01	 4.393E+00	 4.648E-01	 3.985E-01	 4.761E+00	-5.310E+00	 7.750E+01	 4.159E+01	 2.971E+01	-1.780E-01	 3.749E+01	 3.038E+01	 8.941E+01	 5.130E-02	 1.307E-03	 2.852E+01	 2.145E+00	 3.204E-02	 5.553E+00
  68.788	 5.218E+01	 3.376E-01	 4.376E+00	 3.937E-01	 2.324E-01	 5.023E+00	-5.320E+00	 7.783E+01	 4.172E+01	 2.880E+01	-1.612E-01	 3.486E+01	 2.766E+01	 8.915E+01	 5.118E-02	 1.352E-03	 2.906E+01	 1.497E+00	 3.281E-02	 5.659E+00
  68.803	 5.698E+01	 3.357E-01	 4.357E+00	 3.594E-01	 6.730E-02	 5.271E+00	-5.393E+00	 7.821E+01	 4.163E+01	 2.855E+01	-1.519E-01	 3.422E+01	 2.688E+01	 8.871E+01	 5.106E-02	 1.432E-03	 2.945E+01	 7.318E-01	 3.354E-02	 5.762E+00
  68.819	 6.178E+01	 3.270E-01	 4.336E+00	 3.682E-01	-5.903E-02	 5.381E+00	-5.570E+00	 7.858E+01	 4.104E+01	 2.927E+01	-1.524E-01	 3.543E+01	 2.795E+01	 8.849E+01	 5.097E-02	 1.534E-03	 2.951E+01	 2.021E-01	 3.401E-02	 5.799E+00
  68.834	 6.658E+01	 3.096E-01	 4.314E+00	 4.111E-01	-1.204E-01	 5.330E+00	-5.819E+00	 7.895E+01	 4.002E+01	 3.075E+01	-1.604E-01	 3.778E+01	 3.024E+01	 8.857E+01	 5.089E-02	 1.648E-03	 2.922E+01	 1.911E-01	 3.406E-02	 5.743E+00
  68.849	 7.138E+01	 2.828E-01	 4.291E+00	 4.665E-01	-1.364E-01	 5.122E+00	-6.102E+00	 7.929E+01	 3.884E+01	 3.259E+01	-1.723E-01	 4.012E+01	 3.263E+01	 8.904E+01	 5.082E-02	 1.766E-03	 2.875E+01	 7.773E-01	 3.360E-02	 5.620E+00
  68.865	 7.666E+01	 2.449E-01	 4.263E+00	 5.242E-01	-1.191E-01	 4.838E+00	-6.415E+00	 7.964E+01	 3.775E+01	 3.466E+01	-1.868E-01	 4.155E+01	 3.425E+01	 9.013E+01	 5.075E-02	 1.903E-03	 2.830E+01	 1.906E+00	 3.265E-02	 5.487E+00
  68.880	 8.146E+01	 2.065E-01	 4.236E+00	 5.708E-01	-9.188E-02	 4.622E+00	-6.662E+00	 7.996E+01	 3.708E+01	 3.630E+01	-1.994E-01	 4.141E+01	 3.431E+01	 9.147E+01	 5.069E-02	 2.040E-03	 2.812E+01	 2.994E+00	 3.162E-02	 5.395E+00
  68.895	 8.626E+01	 1.678E-01	 4.207E+00	 6.022E-01	-6.729E-02	 4.467E+00	-6.846E+00	 8.030E+01	 3.682E+01	 3.752E+01	-2.097E-01	 4.006E+01	 3.312E+01	 9.289E+01	 5.061E-02	 2.195E-03	 2.818E+01	 3.771E+00	 3.071E-02	 5.373E+00
  68.910	 9.106E+01	 1.304E-01	 4.176E+00	 6.206E-01	-5.534E-02	 4.394E+00	-6.931E+00	 8.068E+01	 3.691E+01	 3.816E+01	-2.168E-01	 3.825E+01	 3.140E+01	 9.393E+01	 5.052E-02	 2.372E-03	 2.838E+01	 4.009E+00	 3.005E-02	 5.376E+00
  68.925	 9.586E+01	 9.477E-02	 4.143E+00	 6.244E-01	-5.417E-02	 4.403E+00	-6.939E+00	 8.105E+01	 3.734E+01	 3.828E+01	-2.203E-01	 3.682E+01	 2.996E+01	 9.449E+01	 5.043E-02	 2.564E-03	 2.858E+01	 3.718E+00	 2.972E-02	 5.422E+00
  68.940	 1.007E+02	 6.102E-02	 4.109E+00	 6.191E-01	-5.093E-02	 4.491E+00	-6.883E+00	 8.143E+01	 3.796E+01	 3.798E+01	-2.210E-01	 3.636E+01	 2.945E+01	 9.445E+01	 5.035E-02	 2.759E-03	 2.865E+01	 3.134E+00	 2.979E-02	 5.470E+00
  68.955	 1.055E+02	 2.831E-02	 4.077E+00	 6.087E-01	-1.936E-02	 4.615E+00	-6.762E+00	 8.182E+01	 3.868E+01	 3.734E+01	-2.189E-01	 3.705E+01	 3.012E+01	 9.379E+01	 5.026E-02	 2.940E-03	 2.851E+01	 2.614E+00	 3.026E-02	 5.548E+00
  68.970	 1.103E+02	-4.994E-03	 4.047E+00	 5.909E-01	 4.239E-02	 4.754E+00	-6.601E+00	 8.217E+01	 3.949E+01	 3.642E+01	-2.144E-01	 3.857E+01	 3.171E+01	 9.278E+01	 5.020E-02	 3.091E-03	 2.821E+01	 2.469E+00	 3.105E-02	 5.635E+00
  68.985	 1.151E+02	-4.007E-02	 4.018E+00	 5.688E-01	 1.147E-01	 4.914E+00	-6.415E+00	 8.250E+01	 4.046E+01	 3.531E+01	-2.077E-01	 4.029E+01	 3.361E+01	 9.171E+01	 5.014E-02	 3.200E-03	 2.787E+01	 2.833E+00	 3.210E-02	 5.752E+00
  69.000	 1.199E+02	-7.782E-02	 3.993E+00	 5.340E-01	 1.236E-01	 5.068E+00	-6.198E+00	 8.281E+01	 4.146E+01	 3.403E+01	-1.993E-01	 4.156E+01	 3.516E+01	 9.075E+01	 5.010E-02	 3.266E-03	 2.760E+01	 3.605E+00	 3.325E-02	 5.864E+00
  69.015	 1.247E+02	-1.184E-01	 3.970E+00	 5.000E-01	 9.735E-02	 5.209E+00	-5.969E+00	 8.310E+01	 4.243E+01	 3.275E+01	-1.911E-01	 4.208E+01	 3.599E+01	 9.011E+01	 5.007E-02	 3.295E-03	 2.748E+01	 4.492E+00	 3.436E-02	 5.969E+00
  69.030	 1.295E+02	-1.616E-01	 3.948E+00	 4.770E-01	 7.739E-02	 5.357E+00	-5.747E+00	 8.338E+01	 4.329E+01	 3.161E+01	-1.843E-01	 4.191E+01	 3.605E+01	 8.980E+01	 5.005E-02	 3.296E-03	 2.753E+01	 5.151E+00	 3.533E-02	 6.051E+00
  69.045	 1.343E+02	-2.071E-01	 3.928E+00	 4.638E-01	 8.040E-02	 5.456E+00	-5.530E+00	 8.365E+01	 4.393E+01	 3.061E+01	-1.786E-01	 4.124E+01	 3.550E+01	 8.973E+01	 5.006E-02	 3.277E-03	 2.768E+01	 5.334E+00	 3.606E-02	 6.102E+00
  69.060	 1.391E+02	-2.546E-01	 3.910E+00	 4.515E-01	 1.039E-01	 5.523E+00	-5.294E+00	 8.388E+01	 4.436E+01	 2.955E+01	-1.723E-01	 4.029E+01	 3.454E+01	 8.967E+01	 5.009E-02	 3.240E-03	 2.786E+01	 4.994E+00	 3.650E-02	 6.131E+00
  69.075	 1.439E+02	-3.037E-01	 3.893E+00	 4.248E-01	 1.195E-01	 5.520E+00	-5.023E+00	 8.409E+01	 4.469E+01	 2.823E+01	-1.626E-01	 3.910E+01	 3.326E+01	 8.957E+01	 5.014E-02	 3.184E-03	 2.800E+01	 4.281E+00	 3.658E-02	 6.147E+00
  69.090	 1.487E+02	-3.531E-01	 3.879E+00	 3.861E-01	 1.122E-01	 5.428E+00	-4.693E+00	 8.427E+01	 4.486E+01	 2.655E+01	-1.496E-01	 3.770E+01	 3.177E+01	 8.934E+01	 5.022E-02	 3.101E-03	 2.805E+01	 3.460E+00	 3.632E-02	 6.119E+00
  69.105	 1.535E+02	-4.004E-01	 3.866E+00	 3.419E-01	 7.912E-02	 5.280E+00	-4.333E+00	 8.443E+01	 4.484E+01	 2.472E+01	-1.351E-01	 3.640E+01	 3.040E+01	 8.905E+01	 5.033E-02	 2.986E-03	 2.807E+01	 2.787E+00	 3.571E-02	 6.044E+00
  69.120	 1.583E+02	-4.430E-01	 3.855E+00	 3.095E-01	 4.758E-02	 5.116E+00	-3.983E+00	 8.458E+01	 4.457E+01	 2.301E+01	-1.224E-01	 3.549E+01	 2.950E+01	 8.868E+01	 5.046E-02	 2.834E-03	 2.810E+01	 2.420E+00	 3.477E-02	 5.930E+00
  69.135	 1.631E+02	-4.779E-01	 3.847E+00	 2.986E-01	 7.462E-02	 4.903E+00	-3.661E+00	 8.472E+01	 4.391E+01	 2.165E+01	-1.137E-01	 3.514E+01	 2.924E+01	 8.819E+01	 5.060E-02	 2.647E-03	 2.820E+01	 2.381E+00	 3.360E-02	 5.795E+00
  69.150	 1.679E+02	-5.031E-01	 3.840E+00	 3.091E-01	 1.694E-01	 4.626E+00	-3.359E+00	 8.482E+01	 4.289E+01	 2.058E+01	-1.085E-01	 3.522E+01	 2.946E+01	 8.754E+01	 5.076E-02	 2.431E-03	 2.841E+01	 2.570E+00	 3.232E-02	 5.657E+00
  69.165	 1.727E+02	-5.186E-01	 3.835E+00	 3.882E-01	 3.581E-01	 4.324E+00	-2.950E+00	 8.490E+01	 4.101E+01	 1.915E+01	-1.055E-01	 3.511E+01	 2.950E+01	 8.647E+01	 5.091E-02	 2.195E-03	 2.876E+01	 2.818E+00	 3.106E-02	 5.277E+00
  69.180	 1.775E+02	-5.282E-01	 3.832E+00	 3.629E-01	 5.315E-01	 3.771E+00	-2.500E+00	 8.490E+01	 3.774E+01	 1.690E+01	-8.968E-02	 3.481E+01	 2.933E+01	 8.515E+01	 5.104E-02	 1.950E-03	 2.922E+01	 2.923E+00	 2.959E-02	 4.621E+00
  69.195	 1.823E+02	-5.376E-01	 3.829E+00	 1.779E-01	 3.956E-01	 3.159E+00	-1.955E+00	 8.482E+01	 3.550E+01	 1.318E+01	-5.304E-02	 3.337E+01	 2.788E+01	 8.477E+01	 5.114E-02	 1.709E-03	 2.997E+01	 2.784E+00	 2.769E-02	 4.199E+00
  69.210	 1.871E+02	-5.410E-01	 3.825E+00	-1.276E-02	 1.869E-01	 3.234E+00	-1.587E+00	 8.479E+01	 3.621E+01	 1.042E+01	-2.362E-02	 3.200E+01	 2.640E+01	 8.471E+01	 5.119E-02	 1.480E-03	 3.086E+01	 2.290E+00	 2.645E-02	 4.418E+00
  69.225	 1.919E+02	-5.281E-01	 3.820E+00	-1.433E-02	-8.814E-02	 4.016E+00	-1.435E+00	 8.488E+01	 3.780E+01	 9.992E+00	-2.322E-02	 3.197E+01	 2.622E+01	 8.378E+01	 5.122E-02	 1.270E-03	 3.137E+01	 1.472E+00	 2.705E-02	 4.814E+00
  69.241	 1.971E+02	-5.002E-01	 3.813E+00	 8.971E-02	-2.220E-01	 4.850E+00	-1.470E+00	 8.490E+01	 3.921E+01	 1.134E+01	-3.802E-02	 3.480E+01	 2.881E+01	 8.315E+01	 5.125E-02	 1.061E-03	 3.114E+01	 4.587E-01	 2.895E-02	 5.212E+00
  69.256	 2.019E+02	-4.726E-01	 3.806E+00	 1.602E-01	-3.140E-01	 5.227E+00	-1.478E+00	 8.482E+01	 3.991E+01	 1.228E+01	-4.670E-02	 3.914E+01	 3.293E+01	 8.353E+01	 5.127E-02	 8.848E-04	 3.027E+01	-1.622E-01	 3.047E-02	 5.458E+00
  69.271	 2.067E+02	-4.472E-01	 3.799E+00	 1.622E-01	-3.710E-01	 5.345E+00	-1.348E+00	 8.465E+01	 4.026E+01	 1.188E+01	-4.373E-02	 4.313E+01	 3.676E+01	 8.478E+01	 5.131E-02	 7.159E-04	 2.914E+01	-1.968E-01	 3.142E-02	 5.530E+00
  69.286	 2.115E+02	-4.238E-01	 3.791E+00	 1.152E-01	-3.150E-01	 5.348E+00	-1.053E+00	 8.447E+01	 4.038E+01	 1.016E+01	-3.121E-02	 4.502E+01	 3.866E+01	 8.623E+01	 5.134E-02	 5.574E-04	 2.818E+01	 3.488E-01	 3.201E-02	 5.495E+00
  69.301	 2.163E+02	-4.023E-01	 3.781E+00	 4.369E-02	-1.819E-01	 5.319E+00	-6.309E-01	 8.427E+01	 4.044E+01	 7.569E+00	-1.276E-02	 4.403E+01	 3.782E+01	 8.741E+01	 5.136E-02	 4.213E-04	 2.771E+01	 1.169E+00	 3.255E-02	 5.391E+00
  69.316	 2.211E+02	-3.847E-01	 3.767E+00	-3.711E-02	-6.014E-02	 5.335E+00	-1.625E-01	 8.405E+01	 4.094E+01	 4.705E+00	 8.307E-03	 4.087E+01	 3.484E+01	 8.818E+01	 5.136E-02	 3.242E-04	 2.789E+01	 1.811E+00	 3.308E-02	 5.320E+00
  69.331	 2.259E+02	-3.726E-01	 3.749E+00	-1.065E-01	 5.360E-03	 5.385E+00	 2.527E-01	 8.378E+01	 4.199E+01	 2.273E+00	 2.747E-02	 3.712E+01	 3.120E+01	 8.852E+01	 5.134E-02	 2.800E-04	 2.854E+01	 1.907E+00	 3.347E-02	 5.369E+00
  69.346	 2.307E+02	-3.643E-01	 3.728E+00	-1.374E-01	 3.842E-02	 5.422E+00	 5.490E-01	 8.349E+01	 4.321E+01	 8.493E-01	 3.908E-02	 3.449E+01	 2.852E+01	 8.847E+01	 5.132E-02	 2.936E-04	 2.929E+01	 1.364E+00	 3.371E-02	 5.487E+00
  69.361	 2.355E+02	-3.572E-01	 3.704E+00	-1.257E-01	 5.810E-02	 5.408E+00	 7.243E-01	 8.320E+01	 4.406E+01	 4.574E-01	 4.131E-02	 3.404E+01	 2.788E+01	 8.841E+01	 5.132E-02	 3.584E-04	 2.981E+01	 4.165E-01	 3.377E-02	 5.579E+00
  69.376	 2.403E+02	-3.492E-01	 3.677E+00	-9.251E-02	 6.540E-02	 5.260E+00	 8.024E-01	 8.289E+01	 4.422E+01	 7.344E-01	 3.707E-02	 3.580E+01	 2.940E+01	 8.868E+01	 5.134E-02	 4.586E-04	 2.989E+01	-4.678E-01	 3.363E-02	 5.531E+00
  69.391	 2.451E+02	-3.376E-01	 3.649E+00	-6.131E-02	 8.829E-02	 5.159E+00	 8.432E-01	 8.257E+01	 4.405E+01	 1.141E+00	 3.132E-02	 3.904E+01	 3.247E+01	 8.945E+01	 5.138E-02	 5.758E-04	 2.959E+01	-8.266E-01	 3.354E-02	 5.460E+00
  69.406	 2.499E+02	-3.216E-01	 3.619E+00	-5.833E-02	 6.275E-02	 5.100E+00	 9.221E-01	 8.224E+01	 4.382E+01	 1.084E+00	 3.003E-02	 4.242E+01	 3.583E+01	 9.075E+01	 5.145E-02	 6.970E-04	 2.908E+01	-4.104E-01	 3.373E-02	 5.376E+00
  69.421	 2.547E+02	-3.011E-01	 3.588E+00	-7.639E-02	 1.435E-02	 5.165E+00	 1.081E+00	 8.191E+01	 4.393E+01	 3.610E-01	 3.462E-02	 4.501E+01	 3.856E+01	 9.244E+01	 5.153E-02	 8.184E-04	 2.862E+01	 6.834E-01	 3.434E-02	 5.372E+00
  69.436	 2.595E+02	-2.779E-01	 3.555E+00	-1.017E-01	 1.723E-02	 5.298E+00	 1.264E+00	 8.155E+01	 4.424E+01	-7.394E-01	 4.331E-02	 4.665E+01	 4.046E+01	 9.418E+01	 5.161E-02	 9.457E-04	 2.834E+01	 2.067E+00	 3.515E-02	 5.410E+00
  69.451	 2.643E+02	-2.536E-01	 3.520E+00	-1.295E-01	 6.441E-02	 5.360E+00	 1.459E+00	 8.117E+01	 4.432E+01	-1.994E+00	 5.334E-02	 4.672E+01	 4.080E+01	 9.537E+01	 5.170E-02	 1.088E-03	 2.826E+01	 3.287E+00	 3.600E-02	 5.423E+00
  69.466	 2.691E+02	-2.302E-01	 3.483E+00	-1.616E-01	 8.637E-02	 5.338E+00	 1.670E+00	 8.076E+01	 4.414E+01	-3.378E+00	 6.416E-02	 4.506E+01	 3.939E+01	 9.591E+01	 5.180E-02	 1.253E-03	 2.842E+01	 3.974E+00	 3.663E-02	 5.341E+00
  69.481	 2.739E+02	-2.089E-01	 3.445E+00	-1.937E-01	 1.061E-01	 5.242E+00	 1.824E+00	 8.035E+01	 4.380E+01	-4.520E+00	 7.344E-02	 4.225E+01	 3.674E+01	 9.559E+01	 5.190E-02	 1.440E-03	 2.876E+01	 3.975E+00	 3.689E-02	 5.241E+00
  69.496	 2.787E+02	-1.887E-01	 3.407E+00	-2.088E-01	 1.541E-01	 5.161E+00	 1.907E+00	 7.997E+01	 4.337E+01	-5.189E+00	 7.839E-02	 3.901E+01	 3.355E+01	 9.463E+01	 5.199E-02	 1.642E-03	 2.922E+01	 3.394E+00	 3.691E-02	 5.134E+00
  69.511	 2.835E+02	-1.693E-01	 3.370E+00	-2.079E-01	 1.985E-01	 5.105E+00	 1.907E+00	 7.962E+01	 4.303E+01	-5.334E+00	 7.924E-02	 3.615E+01	 3.068E+01	 9.338E+01	 5.209E-02	 1.845E-03	 2.972E+01	 2.545E+00	 3.676E-02	 5.050E+00
  69.526	 2.883E+02	-1.502E-01	 3.335E+00	-1.984E-01	 2.257E-01	 5.026E+00	 1.823E+00	 7.928E+01	 4.284E+01	-4.963E+00	 7.681E-02	 3.436E+01	 2.888E+01	 9.221E+01	 5.219E-02	 2.031E-03	 3.012E+01	 1.816E+00	 3.639E-02	 5.008E+00
  69.541	 2.931E+02	-1.304E-01	 3.303E+00	-1.772E-01	 2.210E-01	 4.935E+00	 1.666E+00	 7.896E+01	 4.276E+01	-4.089E+00	 7.041E-02	 3.392E+01	 2.849E+01	 9.131E+01	 5.229E-02	 2.182E-03	 3.035E+01	 1.531E+00	 3.577E-02	 4.981E+00
  69.556	 2.979E+02	-1.080E-01	 3.274E+00	-1.373E-01	 2.103E-01	 4.776E+00	 1.439E+00	 7.865E+01	 4.260E+01	-2.626E+00	 5.849E-02	 3.475E+01	 2.945E+01	 9.064E+01	 5.239E-02	 2.290E-03	 3.034E+01	 1.818E+00	 3.487E-02	 4.984E+00
  69.572	 3.027E+02	-8.105E-02	 3.249E+00	-7.255E-02	 2.155E-01	 4.568E+00	 1.133E+00	 7.836E+01	 4.202E+01	-6.053E-01	 4.061E-02	 3.623E+01	 3.116E+01	 8.992E+01	 5.249E-02	 2.354E-03	 3.017E+01	 2.584E+00	 3.372E-02	 4.892E+00
  69.587	 3.075E+02	-4.837E-02	 3.227E+00	 8.362E-03	 2.687E-01	 4.298E+00	 7.936E-01	 7.808E+01	 4.097E+01	 1.661E+00	 1.937E-02	 3.764E+01	 3.284E+01	 8.914E+01	 5.258E-02	 2.378E-03	 2.998E+01	 3.547E+00	 3.238E-02	 4.737E+00
  69.602	 3.123E+02	-9.834E-03	 3.208E+00	 8.136E-02	 3.579E-01	 4.023E+00	 4.752E-01	 7.779E+01	 3.945E+01	 3.620E+00	 7.338E-04	 3.825E+01	 3.370E+01	 8.836E+01	 5.266E-02	 2.373E-03	 2.994E+01	 4.360E+00	 3.092E-02	 4.499E+00
  69.618	 3.176E+02	 3.888E-02	 3.189E+00	 1.149E-01	 4.282E-01	 3.764E+00	 1.950E-01	 7.748E+01	 3.771E+01	 4.942E+00	-1.026E-02	 3.765E+01	 3.327E+01	 8.767E+01	 5.270E-02	 2.348E-03	 3.021E+01	 4.734E+00	 2.930E-02	 4.236E+00
  69.633	 3.224E+02	 8.892E-02	 3.173E+00	 1.035E-01	 4.411E-01	 3.588E+00	 4.522E-02	 7.722E+01	 3.620E+01	 5.215E+00	-1.065E-02	 3.597E+01	 3.160E+01	 8.732E+01	 5.269E-02	 2.312E-03	 3.066E+01	 4.480E+00	 2.807E-02	 4.084E+00
  69.648	 3.272E+02	 1.435E-01	 3.158E+00	 6.265E-02	 3.856E-01	 3.482E+00	-2.928E-02	 7.700E+01	 3.474E+01	 4.824E+00	-5.087E-03	 3.368E+01	 2.921E+01	 8.722E+01	 5.265E-02	 2.265E-03	 3.117E+01	 3.744E+00	 2.723E-02	 3.944E+00
  69.663	 3.320E+02	 2.006E-01	 3.145E+00	 1.205E-02	 2.722E-01	 3.491E+00	-1.060E-01	 7.684E+01	 3.351E+01	 4.322E+00	 1.105E-03	 3.162E+01	 2.700E+01	 8.724E+01	 5.256E-02	 2.200E-03	 3.156E+01	 2.771E+00	 2.689E-02	 3.862E+00
  69.678	 3.368E+02	 2.568E-01	 3.132E+00	-2.424E-02	 1.451E-01	 3.614E+00	-2.604E-01	 7.674E+01	 3.259E+01	 4.293E+00	 3.297E-03	 3.052E+01	 2.576E+01	 8.721E+01	 5.243E-02	 2.109E-03	 3.169E+01	 1.878E+00	 2.700E-02	 3.864E+00
  69.693	 3.416E+02	 3.083E-01	 3.122E+00	-3.343E-02	 1.556E-02	 3.785E+00	-5.119E-01	 7.668E+01	 3.195E+01	 5.046E+00	-3.373E-04	 3.066E+01	 2.584E+01	 8.706E+01	 5.227E-02	 1.983E-03	 3.146E+01	 1.340E+00	 2.748E-02	 3.918E+00
  69.708	 3.464E+02	 3.507E-01	 3.114E+00	-1.494E-02	-1.283E-01	 3.915E+00	-8.646E-01	 7.666E+01	 3.156E+01	 6.633E+00	-8.942E-03	 3.187E+01	 2.708E+01	 8.662E+01	 5.206E-02	 1.820E-03	 3.093E+01	 1.287E+00	 2.820E-02	 3.997E+00
  69.723	 3.512E+02	 3.813E-01	 3.109E+00	 3.259E-02	-2.778E-01	 3.973E+00	-1.294E+00	 7.665E+01	 3.149E+01	 8.928E+00	-2.140E-02	 3.336E+01	 2.870E+01	 8.583E+01	 5.182E-02	 1.624E-03	 3.026E+01	 1.666E+00	 2.890E-02	 4.105E+00
  69.738	 3.560E+02	 4.009E-01	 3.106E+00	 1.134E-01	-3.588E-01	 3.754E+00	-1.777E+00	 7.661E+01	 3.097E+01	 1.184E+01	-3.818E-02	 3.475E+01	 3.027E+01	 8.474E+01	 5.154E-02	 1.404E-03	 2.962E+01	 2.231E+00	 2.886E-02	 4.105E+00
  69.753	 8.205E-01	 4.152E-01	 3.104E+00	 2.256E-01	-2.993E-01	 3.434E+00	-2.264E+00	 7.658E+01	 2.975E+01	 1.507E+01	-5.845E-02	 3.469E+01	 3.034E+01	 8.403E+01	 5.120E-02	 1.178E-03	 2.923E+01	 2.704E+00	 2.822E-02	 3.955E+00
  69.768	 5.620E+00	 4.252E-01	 3.101E+00	 3.028E-01	-1.600E-01	 3.584E+00	-2.645E+00	 7.660E+01	 2.980E+01	 1.737E+01	-7.216E-02	 3.318E+01	 2.884E+01	 8.396E+01	 5.081E-02	 9.607E-04	 2.929E+01	 2.791E+00	 2.796E-02	 3.969E+00
  69.783	 1.042E+01	 4.243E-01	 3.096E+00	 2.822E-01	-1.355E-01	 3.802E+00	-2.854E+00	 7.661E+01	 3.144E+01	 1.791E+01	-7.350E-02	 3.102E+01	 2.660E+01	 8.356E+01	 5.036E-02	 7.674E-04	 2.949E+01	 2.307E+00	 2.818E-02	 4.189E+00
  69.798	 1.522E+01	 4.124E-01	 3.089E+00	 2.143E-01	-1.981E-01	 3.850E+00	-2.996E+00	 7.663E+01	 3.368E+01	 1.771E+01	-6.999E-02	 3.002E+01	 2.541E+01	 8.282E+01	 4.990E-02	 6.041E-04	 2.944E+01	 1.293E+00	 2.831E-02	 4.476E+00
  69.813	 2.002E+01	 3.973E-01	 3.081E+00	 1.949E-01	-1.769E-01	 3.917E+00	-3.228E+00	 7.673E+01	 3.547E+01	 1.839E+01	-7.463E-02	 3.122E+01	 2.631E+01	 8.265E+01	 4.944E-02	 4.668E-04	 2.897E+01	 8.592E-02	 2.830E-02	 4.679E+00
  69.828	 2.482E+01	 3.843E-01	 3.071E+00	 2.557E-01	-3.523E-02	 3.914E+00	-3.613E+00	 7.688E+01	 3.623E+01	 2.054E+01	-9.295E-02	 3.412E+01	 2.893E+01	 8.305E+01	 4.898E-02	 3.445E-04	 2.807E+01	-8.326E-01	 2.812E-02	 4.755E+00
  69.843	 2.962E+01	 3.748E-01	 3.060E+00	 3.625E-01	 1.381E-01	 3.796E+00	-4.097E+00	 7.702E+01	 3.597E+01	 2.364E+01	-1.207E-01	 3.732E+01	 3.198E+01	 8.391E+01	 4.855E-02	 2.276E-04	 2.696E+01	-1.080E+00	 2.771E-02	 4.697E+00
  69.858	 3.442E+01	 3.686E-01	 3.048E+00	 4.629E-01	 2.730E-01	 3.683E+00	-4.573E+00	 7.714E+01	 3.544E+01	 2.666E+01	-1.472E-01	 3.927E+01	 3.395E+01	 8.505E+01	 4.812E-02	 1.141E-04	 2.599E+01	-5.726E-01	 2.729E-02	 4.631E+00
  69.873	 3.922E+01	 3.654E-01	 3.034E+00	 5.128E-01	 2.947E-01	 3.714E+00	-4.946E+00	 7.729E+01	 3.530E+01	 2.875E+01	-1.630E-01	 3.918E+01	 3.405E+01	 8.623E+01	 4.770E-02	 1.266E-05	 2.541E+01	 4.170E-01	 2.724E-02	 4.655E+00
  69.888	 4.402E+01	 3.643E-01	 3.017E+00	 5.016E-01	 1.927E-01	 3.961E+00	-5.182E+00	 7.748E+01	 3.601E+01	 2.958E+01	-1.650E-01	 3.768E+01	 3.277E+01	 8.703E+01	 4.728E-02	-6.022E-05	 2.528E+01	 1.383E+00	 2.773E-02	 4.845E+00
  69.903	 4.882E+01	 3.635E-01	 2.996E+00	 4.515E-01	 4.968E-03	 4.300E+00	-5.306E+00	 7.773E+01	 3.720E+01	 2.952E+01	-1.586E-01	 3.607E+01	 3.132E+01	 8.724E+01	 4.687E-02	-8.838E-05	 2.539E+01	 1.854E+00	 2.867E-02	 5.115E+00
  69.918	 5.362E+01	 3.612E-01	 2.973E+00	 4.090E-01	-1.641E-01	 4.609E+00	-5.397E+00	 7.805E+01	 3.828E+01	 2.936E+01	-1.528E-01	 3.559E+01	 3.082E+01	 8.704E+01	 4.649E-02	-6.396E-05	 2.547E+01	 1.638E+00	 2.983E-02	 5.347E+00
  69.933	 5.842E+01	 3.555E-01	 2.946E+00	 4.024E-01	-2.420E-01	 4.819E+00	-5.528E+00	 7.840E+01	 3.893E+01	 2.973E+01	-1.536E-01	 3.670E+01	 3.177E+01	 8.669E+01	 4.615E-02	 8.741E-06	 2.535E+01	 9.089E-01	 3.091E-02	 5.486E+00
  69.948	 6.322E+01	 3.440E-01	 2.919E+00	 4.289E-01	-2.239E-01	 4.844E+00	-5.725E+00	 7.874E+01	 3.915E+01	 3.080E+01	-1.625E-01	 3.887E+01	 3.373E+01	 8.647E+01	 4.588E-02	 1.157E-04	 2.498E+01	 9.724E-02	 3.154E-02	 5.524E+00
  69.963	 6.802E+01	 3.261E-01	 2.889E+00	 4.851E-01	-1.235E-01	 4.709E+00	-5.979E+00	 7.905E+01	 3.905E+01	 3.245E+01	-1.789E-01	 4.081E+01	 3.554E+01	 8.682E+01	 4.565E-02	 2.398E-04	 2.449E+01	-3.346E-01	 3.170E-02	 5.481E+00
  69.979	 7.330E+01	 3.014E-01	 2.856E+00	 5.602E-01	 3.328E-02	 4.599E+00	-6.291E+00	 7.938E+01	 3.914E+01	 3.453E+01	-2.014E-01	 4.158E+01	 3.632E+01	 8.807E+01	 4.546E-02	 3.807E-04	 2.404E+01	-7.735E-02	 3.159E-02	 5.457E+00
  69.994	 7.810E+01	 2.767E-01	 2.823E+00	 6.239E-01	 1.901E-01	 4.552E+00	-6.546E+00	 7.968E+01	 3.949E+01	 3.619E+01	-2.209E-01	 4.079E+01	 3.572E+01	 8.965E+01	 4.534E-02	 5.087E-04	 2.379E+01	 7.386E-01	 3.128E-02	 5.486E+00
