
These predictions were generated by FAST (v7.00.01a-bjj, 5-Nov-2010) on 02-Nov-2010 at 11:27:37.
The aerodynamic calculations were made by AeroDyn (v13.00.00a-bjj, 31-Mar-2010).

 FAST certification Test #12: WindPACT 1.5 MW Baseline with many DOFs with VS and VP and ECD wind.

    Time	HorWindV	HorWndDir	OoPDefl3	IPDefl3	TipALxb3	TipALyb3	Spn4ALxb1	Spn4ALyb1	BldPitch3	RotAccel	LSSGagA	HSShftA	NacYawErr	RootFxb3	RootFyb3	RootMEdg3	RootMFlp3	LSShftFya	LSShftFza	YawBrFxp	YawBrFyp	TwrBsFxt	TwrBsFyt
   (sec)	(m/sec)	(deg)	(m)	(m)	(m/sec^2)	(m/sec^2)	(m/sec^2)	(m/sec^2)	(deg)	(deg/sec2)	(deg/sec2)	(deg/sec2)	(deg)	(kN)	(kN)	(kN·m)	(kN·m)	(kN)	(kN)	(kN)	(kN)	(kN)	(kN)
   5.000	 1.180E+01	 0.000E+00	 1.415E+00	-3.518E-01	 1.671E+01	 9.089E-01	 4.247E+00	 4.228E-01	 7.500E+00	-5.204E-01	-5.164E-01	-4.543E+01	 0.000E+00	 6.053E+01	-2.547E+01	 2.982E+02	 1.114E+03	 2.667E+02	 4.750E+00	 1.043E+02	 3.927E+00	 7.974E+01	 8.524E+00
   5.050	 1.180E+01	 0.000E+00	 1.459E+00	-2.320E-01	 6.498E+01	-5.763E+00	 9.161E+00	 1.031E+00	 2.600E+00	-1.262E+01	-7.585E+00	-6.672E+02	 0.000E+00	 5.955E+01	-2.752E+01	 3.253E+02	 1.108E+03	 2.657E+02	-2.521E+01	 1.063E+02	 2.201E+00	 8.217E+01	 7.356E+00
   5.100	 1.180E+01	 0.000E+00	 1.582E+00	-2.643E-01	 3.113E+01	 7.479E+00	 1.271E+01	-1.424E-01	 2.600E+00	 9.541E+00	 4.715E+00	 4.147E+02	 0.000E+00	 5.827E+01	-2.122E+01	 3.138E+02	 1.132E+03	 2.613E+02	-5.263E+01	 1.095E+02	 7.092E+00	 8.500E+01	-1.730E-01
   5.150	 1.180E+01	 0.000E+00	 1.741E+00	-2.755E-01	 1.615E+01	 9.657E+00	 1.006E+01	-1.454E-01	 2.600E+00	 1.234E+01	 1.248E+01	 1.098E+03	 0.000E+00	 6.586E+01	-1.744E+01	 2.767E+02	 1.281E+03	 2.556E+02	-8.141E+01	 1.160E+02	 7.828E+00	 9.035E+01	-5.554E-01
   5.200	 1.180E+01	 0.000E+00	 1.897E+00	-2.494E-01	 2.186E+01	 2.296E+00	 4.028E+00	-5.543E-02	 2.600E+00	 3.496E+00	 4.336E+00	 3.815E+02	 0.000E+00	 7.953E+01	-1.363E+01	 1.937E+02	 1.507E+03	 2.462E+02	-1.122E+02	 1.269E+02	 1.169E+00	 9.512E+01	 8.022E+00
   5.250	 1.180E+01	 0.000E+00	 2.053E+00	-2.148E-01	 2.310E+01	-4.769E+00	 9.504E-01	-7.628E-02	 2.600E+00	-5.558E+00	-5.894E+00	-5.184E+02	 0.000E+00	 8.949E+01	-9.446E+00	 1.079E+02	 1.682E+03	 2.315E+02	-1.407E+02	 1.415E+02	-4.675E+00	 9.664E+01	 1.344E+01
   5.300	 1.180E+01	 0.000E+00	 2.206E+00	-2.029E-01	 1.131E+01	-4.691E+00	 2.830E+00	-3.138E-01	 2.600E+00	-5.594E+00	-5.972E+00	-5.254E+02	 0.000E+00	 9.093E+01	-4.850E+00	 5.541E+01	 1.741E+03	 2.133E+02	-1.638E+02	 1.566E+02	-3.331E+00	 9.914E+01	 7.099E+00
   5.350	 1.180E+01	 0.000E+00	 2.323E+00	-2.129E-01	-1.531E-01	 2.683E-01	 6.204E+00	-7.173E-01	 2.600E+00	 2.097E+00	 2.152E+00	 1.893E+02	 0.000E+00	 8.757E+01	 1.847E-02	 2.960E+01	 1.722E+03	 1.938E+02	-1.833E+02	 1.695E+02	 2.591E+00	 1.110E+02	-5.789E+00
   5.400	 1.180E+01	 0.000E+00	 2.372E+00	-2.194E-01	 2.320E+00	 3.198E+00	 7.409E+00	-1.022E+00	 2.600E+00	 8.450E+00	 8.702E+00	 7.654E+02	 0.000E+00	 8.549E+01	 4.681E+00	 2.808E-01	 1.702E+03	 1.729E+02	-2.027E+02	 1.802E+02	 5.588E+00	 1.359E+02	-1.265E+01
   5.450	 1.180E+01	 0.000E+00	 2.360E+00	-2.041E-01	 1.623E+01	 1.007E+00	 6.519E+00	-1.034E+00	 2.600E+00	 7.803E+00	 7.943E+00	 6.987E+02	 0.000E+00	 8.635E+01	 8.771E+00	-4.913E+01	 1.705E+03	 1.487E+02	-2.220E+02	 1.912E+02	 1.809E+00	 1.678E+02	-7.377E+00
   5.500	 1.180E+01	 0.000E+00	 2.318E+00	-1.734E-01	 2.860E+01	-3.277E+00	 5.911E+00	-8.352E-01	 2.600E+00	 2.978E+00	 2.906E+00	 2.556E+02	 0.000E+00	 8.739E+01	 1.232E+01	-1.077E+02	 1.705E+03	 1.208E+02	-2.383E+02	 2.055E+02	-5.308E+00	 1.969E+02	 3.573E+00
   5.550	 1.180E+01	 0.000E+00	 2.276E+00	-1.465E-01	 3.167E+01	-5.123E+00	 6.676E+00	-6.670E-01	 2.600E+00	 1.975E-01	 4.779E-02	 4.204E+00	 0.000E+00	 8.602E+01	 1.557E+01	-1.550E+02	 1.675E+03	 9.143E+01	-2.490E+02	 2.239E+02	-9.308E+00	 2.178E+02	 8.511E+00
   5.600	 1.180E+01	 0.000E+00	 2.241E+00	-1.333E-01	 2.889E+01	-3.441E+00	 7.647E+00	-6.717E-01	 2.600E+00	 1.753E+00	 1.709E+00	 1.503E+02	 0.000E+00	 8.295E+01	 1.866E+01	-1.837E+02	 1.623E+03	 6.295E+01	-2.547E+02	 2.446E+02	-7.448E+00	 2.335E+02	 2.321E+00
   5.650	 1.180E+01	 0.000E+00	 2.208E+00	-1.280E-01	 2.762E+01	-8.554E-01	 7.408E+00	-7.823E-01	 2.600E+00	 4.564E+00	 4.652E+00	 4.092E+02	 0.000E+00	 8.073E+01	 2.147E+01	-2.040E+02	 1.583E+03	 3.544E+01	-2.575E+02	 2.646E+02	-2.834E+00	 2.509E+02	-9.354E+00
   5.700	 1.180E+01	 0.000E+00	 2.175E+00	-1.193E-01	 3.044E+01	-1.632E-01	 6.066E+00	-8.496E-01	 2.600E+00	 4.804E+00	 4.898E+00	 4.308E+02	 0.000E+00	 8.076E+01	 2.375E+01	-2.276E+02	 1.573E+03	 7.307E+00	-2.589E+02	 2.822E+02	-5.837E-01	 2.744E+02	-1.657E+01
   5.750	 1.180E+01	 0.000E+00	 2.149E+00	-1.047E-01	 3.395E+01	-1.400E+00	 4.877E+00	-8.235E-01	 2.600E+00	 2.362E+00	 2.351E+00	 2.068E+02	 0.000E+00	 8.220E+01	 2.543E+01	-2.550E+02	 1.584E+03	-2.233E+01	-2.579E+02	 2.975E+02	-2.757E+00	 3.024E+02	-1.457E+01
   5.800	 1.180E+01	 0.000E+00	 2.139E+00	-9.150E-02	 3.415E+01	-2.470E+00	 4.612E+00	-7.841E-01	 2.600E+00	 3.177E-01	 2.267E-01	 1.994E+01	 0.000E+00	 8.345E+01	 2.665E+01	-2.771E+02	 1.597E+03	-5.248E+01	-2.533E+02	 3.119E+02	-7.069E+00	 3.296E+02	-6.975E+00
   5.850	 1.180E+01	 0.000E+00	 2.147E+00	-8.661E-02	 3.096E+01	-1.900E+00	 4.824E+00	-8.200E-01	 2.600E+00	 9.538E-01	 8.943E-01	 7.866E+01	 0.000E+00	 8.396E+01	 2.764E+01	-2.879E+02	 1.604E+03	-8.134E+01	-2.447E+02	 3.268E+02	-9.812E+00	 3.512E+02	-1.198E+00
   5.900	 1.180E+01	 0.000E+00	 2.165E+00	-8.897E-02	 2.767E+01	-4.075E-01	 4.673E+00	-9.309E-01	 2.600E+00	 3.277E+00	 3.310E+00	 2.912E+02	 0.000E+00	 8.451E+01	 2.841E+01	-2.907E+02	 1.615E+03	-1.079E+02	-2.329E+02	 3.423E+02	-9.360E+00	 3.663E+02	-1.541E+00
   5.950	 1.180E+01	 0.000E+00	 2.186E+00	-9.188E-02	 2.667E+01	 2.387E-01	 3.979E+00	-1.042E+00	 2.600E+00	 4.551E+00	 4.629E+00	 4.072E+02	 0.000E+00	 8.593E+01	 2.881E+01	-2.927E+02	 1.636E+03	-1.325E+02	-2.187E+02	 3.572E+02	-6.968E+00	 3.771E+02	-6.544E+00
   6.000	 1.180E+01	 0.000E+00	 2.208E+00	-9.132E-02	 2.737E+01	-6.681E-01	 3.288E+00	-1.097E+00	 2.600E+00	 3.547E+00	 3.578E+00	 3.148E+02	 0.000E+00	 8.812E+01	 2.866E+01	-2.962E+02	 1.669E+03	-1.556E+02	-2.023E+02	 3.699E+02	-4.905E+00	 3.871E+02	-1.157E+01
   6.050	 1.180E+01	-7.500E-03	 2.233E+00	-9.009E-02	 2.777E+01	-2.128E+00	 3.136E+00	-1.114E+00	 2.600E+00	 1.689E+00	 1.647E+00	 1.449E+02	-7.500E-03	 9.033E+01	 2.792E+01	-2.955E+02	 1.702E+03	-1.775E+02	-1.836E+02	 3.793E+02	-4.388E+00	 3.985E+02	-1.303E+01
   6.100	 1.180E+01	-1.500E-02	 2.262E+00	-9.407E-02	 2.703E+01	-2.728E+00	 3.487E+00	-1.149E+00	 2.600E+00	 1.168E+00	 1.103E+00	 9.698E+01	-1.500E-02	 9.200E+01	 2.664E+01	-2.837E+02	 1.730E+03	-1.976E+02	-1.625E+02	 3.854E+02	-5.100E+00	 4.106E+02	-1.049E+01
   6.150	 1.181E+01	-3.750E-02	 2.293E+00	-1.057E-01	 2.577E+01	-2.118E+00	 3.931E+00	-1.231E+00	 2.600E+00	 2.538E+00	 2.524E+00	 2.220E+02	-3.750E-02	 9.327E+01	 2.487E+01	-2.590E+02	 1.753E+03	-2.153E+02	-1.391E+02	 3.893E+02	-6.041E+00	 4.210E+02	-6.030E+00
   6.200	 1.182E+01	-6.000E-02	 2.324E+00	-1.220E-01	 2.524E+01	-1.194E+00	 4.165E+00	-1.340E+00	 2.600E+00	 4.349E+00	 4.386E+00	 3.859E+02	-6.000E-02	 9.457E+01	 2.260E+01	-2.262E+02	 1.777E+03	-2.299E+02	-1.138E+02	 3.920E+02	-6.433E+00	 4.267E+02	-2.298E+00
   6.250	 1.182E+01	-9.750E-02	 2.352E+00	-1.386E-01	 2.559E+01	-9.282E-01	 4.252E+00	-1.435E+00	 2.600E+00	 4.927E+00	 4.977E+00	 4.378E+02	-9.750E-02	 9.614E+01	 1.982E+01	-1.906E+02	 1.803E+03	-2.412E+02	-8.694E+01	 3.940E+02	-5.931E+00	 4.265E+02	-1.033E+00
   6.300	 1.183E+01	-1.350E-01	 2.380E+00	-1.536E-01	 2.639E+01	-1.432E+00	 4.414E+00	-1.500E+00	 2.600E+00	 4.063E+00	 4.069E+00	 3.579E+02	-1.350E-01	 9.787E+01	 1.662E+01	-1.543E+02	 1.831E+03	-2.491E+02	-5.920E+01	 3.947E+02	-4.559E+00	 4.218E+02	-2.344E+00
   6.350	 1.185E+01	-1.880E-01	 2.408E+00	-1.690E-01	 2.691E+01	-2.034E+00	 4.775E+00	-1.540E+00	 2.600E+00	 2.950E+00	 2.922E+00	 2.571E+02	-1.880E-01	 9.946E+01	 1.314E+01	-1.151E+02	 1.858E+03	-2.541E+02	-3.095E+01	 3.931E+02	-2.690E+00	 4.150E+02	-4.758E+00
   6.400	 1.186E+01	-2.410E-01	 2.437E+00	-1.870E-01	 2.716E+01	-2.189E+00	 5.252E+00	-1.565E+00	 2.600E+00	 2.759E+00	 2.721E+00	 2.394E+02	-2.410E-01	 1.007E+02	 9.467E+00	-7.100E+01	 1.882E+03	-2.565E+02	-2.272E+00	 3.885E+02	-1.058E+00	 4.085E+02	-5.992E+00
   6.450	 1.188E+01	-3.085E-01	 2.468E+00	-2.079E-01	 2.716E+01	-1.970E+00	 5.698E+00	-1.570E+00	 2.600E+00	 3.564E+00	 3.563E+00	 3.134E+02	-3.085E-01	 1.017E+02	 5.577E+00	-2.236E+01	 1.903E+03	-2.561E+02	 2.689E+01	 3.811E+02	-3.518E-01	 4.021E+02	-4.440E+00
   6.500	 1.189E+01	-3.760E-01	 2.499E+00	-2.298E-01	 2.727E+01	-1.863E+00	 6.015E+00	-1.551E+00	 2.600E+00	 4.537E+00	 4.556E+00	 4.007E+02	-3.760E-01	 1.024E+02	 1.453E+00	 2.862E+01	 1.921E+03	-2.525E+02	 5.630E+01	 3.718E+02	-6.554E-01	 3.943E+02	-4.184E-01
   6.550	 1.191E+01	-4.580E-01	 2.528E+00	-2.513E-01	 2.749E+01	-2.104E+00	 6.225E+00	-1.517E+00	 2.600E+00	 4.964E+00	 4.984E+00	 4.384E+02	-4.580E-01	 1.029E+02	-2.908E+00	 8.050E+01	 1.937E+03	-2.452E+02	 8.530E+01	 3.617E+02	-1.190E+00	 3.830E+02	 3.827E+00
   6.600	 1.193E+01	-5.400E-01	 2.554E+00	-2.725E-01	 2.809E+01	-2.506E+00	 6.396E+00	-1.490E+00	 2.600E+00	 4.807E+00	 4.808E+00	 4.229E+02	-5.400E-01	 1.034E+02	-7.410E+00	 1.334E+02	 1.951E+03	-2.343E+02	 1.130E+02	 3.513E+02	-9.142E-01	 3.673E+02	 5.789E+00
   6.650	 1.196E+01	-6.375E-01	 2.575E+00	-2.941E-01	 2.884E+01	-2.705E+00	 6.588E+00	-1.484E+00	 2.600E+00	 4.511E+00	 4.505E+00	 3.963E+02	-6.375E-01	 1.037E+02	-1.196E+01	 1.878E+02	 1.961E+03	-2.203E+02	 1.391E+02	 3.403E+02	 5.870E-01	 3.486E+02	 4.692E+00
   6.700	 1.198E+01	-7.350E-01	 2.594E+00	-3.165E-01	 2.976E+01	-2.620E+00	 6.790E+00	-1.497E+00	 2.600E+00	 4.416E+00	 4.406E+00	 3.876E+02	-7.350E-01	 1.039E+02	-1.648E+01	 2.436E+02	 1.969E+03	-2.036E+02	 1.633E+02	 3.281E+02	 2.661E+00	 3.292E+02	 2.182E+00
   6.750	 1.201E+01	-8.465E-01	 2.608E+00	-3.389E-01	 3.039E+01	-2.431E+00	 6.961E+00	-1.514E+00	 2.600E+00	 4.547E+00	 4.545E+00	 3.998E+02	-8.465E-01	 1.037E+02	-2.099E+01	 2.992E+02	 1.973E+03	-1.842E+02	 1.861E+02	 3.145E+02	 4.140E+00	 3.110E+02	 9.589E-01
   6.800	 1.204E+01	-9.580E-01	 2.619E+00	-3.599E-01	 3.081E+01	-2.365E+00	 7.043E+00	-1.522E+00	 2.600E+00	 4.775E+00	 4.772E+00	 4.198E+02	-9.580E-01	 1.032E+02	-2.542E+01	 3.527E+02	 1.972E+03	-1.621E+02	 2.071E+02	 2.996E+02	 4.312E+00	 2.941E+02	 2.573E+00
   6.850	 1.207E+01	-1.084E+00	 2.624E+00	-3.789E-01	 3.101E+01	-2.428E+00	 7.036E+00	-1.521E+00	 2.600E+00	 5.027E+00	 5.029E+00	 4.424E+02	-1.084E+00	 1.025E+02	-2.969E+01	 4.031E+02	 1.966E+03	-1.374E+02	 2.257E+02	 2.845E+02	 3.502E+00	 2.775E+02	 6.192E+00
   6.900	 1.210E+01	-1.211E+00	 2.622E+00	-4.022E-01	 2.947E+01	-1.623E+00	 7.480E+00	-1.807E+00	 2.744E+00	 8.086E+00	 5.338E+00	 4.695E+02	-1.211E+00	 1.022E+02	-3.312E+01	 4.453E+02	 1.959E+03	-1.105E+02	 2.412E+02	 2.702E+02	 2.737E+00	 2.599E+02	 9.396E+00
   6.950	 1.213E+01	-1.352E+00	 2.610E+00	-4.181E-01	 3.047E+01	-2.226E+00	 6.687E+00	-1.534E+00	 2.815E+00	 5.912E+00	 5.903E+00	 5.193E+02	-1.352E+00	 1.006E+02	-3.681E+01	 4.851E+02	 1.941E+03	-8.179E+01	 2.529E+02	 2.564E+02	 2.905E+00	 2.409E+02	 1.018E+01
   7.000	 1.217E+01	-1.493E+00	 2.585E+00	-4.336E-01	 3.074E+01	-2.588E+00	 6.532E+00	-1.522E+00	 2.989E+00	 5.396E+00	 5.405E+00	 4.754E+02	-1.493E+00	 9.966E+01	-3.968E+01	 5.141E+02	 1.922E+03	-5.211E+01	 2.610E+02	 2.437E+02	 3.673E+00	 2.218E+02	 8.640E+00
   7.050	 1.220E+01	-1.648E+00	 2.550E+00	-4.452E-01	 3.169E+01	-3.239E+00	 6.223E+00	-1.392E+00	 3.166E+00	 3.737E+00	 5.061E+00	 4.452E+02	-1.648E+00	 9.808E+01	-4.222E+01	 5.379E+02	 1.894E+03	-2.173E+01	 2.655E+02	 2.313E+02	 4.833E+00	 2.043E+02	 5.863E+00
   7.100	 1.224E+01	-1.804E+00	 2.507E+00	-4.534E-01	 3.212E+01	-3.272E+00	 6.335E+00	-1.381E+00	 3.313E+00	 3.711E+00	 4.299E+00	 3.782E+02	-1.804E+00	 9.638E+01	-4.417E+01	 5.569E+02	 1.860E+03	 9.230E+00	 2.667E+02	 2.193E+02	 5.328E+00	 1.897E+02	 4.034E+00
   7.150	 1.228E+01	-1.973E+00	 2.457E+00	-4.611E-01	 3.238E+01	-3.136E+00	 5.756E+00	-1.213E+00	 3.480E+00	 3.207E+00	 4.671E+00	 4.109E+02	-1.973E+00	 9.397E+01	-4.574E+01	 5.729E+02	 1.818E+03	 4.048E+01	 2.641E+02	 2.075E+02	 5.090E+00	 1.780E+02	 4.086E+00
   7.200	 1.233E+01	-2.142E+00	 2.402E+00	-4.659E-01	 3.238E+01	-2.714E+00	 5.919E+00	-1.183E+00	 3.634E+00	 3.888E+00	 4.987E+00	 4.387E+02	-2.142E+00	 9.208E+01	-4.684E+01	 5.836E+02	 1.779E+03	 7.164E+01	 2.578E+02	 1.970E+02	 3.898E+00	 1.685E+02	 5.948E+00
   7.250	 1.237E+01	-2.325E+00	 2.344E+00	-4.684E-01	 3.055E+01	-2.260E+00	 6.327E+00	-1.230E+00	 3.815E+00	 4.788E+00	 5.648E+00	 4.969E+02	-2.325E+00	 9.120E+01	-4.757E+01	 5.881E+02	 1.746E+03	 1.019E+02	 2.479E+02	 1.883E+02	 2.653E+00	 1.600E+02	 7.733E+00
   7.300	 1.242E+01	-2.509E+00	 2.286E+00	-4.666E-01	 3.107E+01	-2.193E+00	 6.254E+00	-1.153E+00	 3.974E+00	 4.295E+00	 4.993E+00	 4.392E+02	-2.509E+00	 8.965E+01	-4.765E+01	 5.849E+02	 1.710E+03	 1.307E+02	 2.340E+02	 1.814E+02	 1.660E+00	 1.517E+02	 7.916E+00
   7.350	 1.247E+01	-2.706E+00	 2.229E+00	-4.630E-01	 3.082E+01	-1.493E+00	 7.121E+00	-1.360E+00	 4.149E+00	 5.992E+00	 3.268E+00	 2.875E+02	-2.706E+00	 8.894E+01	-4.683E+01	 5.729E+02	 1.681E+03	 1.573E+02	 2.169E+02	 1.765E+02	 1.257E+00	 1.443E+02	 5.878E+00
   7.400	 1.251E+01	-2.904E+00	 2.177E+00	-4.566E-01	 3.044E+01	-1.396E+00	 7.037E+00	-1.219E+00	 4.298E+00	 4.864E+00	 3.126E+00	 2.749E+02	-2.904E+00	 8.750E+01	-4.591E+01	 5.583E+02	 1.648E+03	 1.814E+02	 1.968E+02	 1.726E+02	 1.766E+00	 1.389E+02	 2.233E+00
   7.450	 1.257E+01	-3.114E+00	 2.130E+00	-4.466E-01	 3.056E+01	-1.510E+00	 6.726E+00	-9.576E-01	 4.387E+00	 3.031E+00	 2.865E+00	 2.521E+02	-3.114E+00	 8.552E+01	-4.449E+01	 5.387E+02	 1.614E+03	 2.031E+02	 1.738E+02	 1.695E+02	 1.772E+00	 1.362E+02	-5.119E-01
   7.500	 1.262E+01	-3.325E+00	 2.087E+00	-4.369E-01	 2.973E+01	-1.235E+00	 6.701E+00	-8.677E-01	 4.535E+00	 3.058E+00	 2.647E+00	 2.328E+02	-3.325E+00	 8.436E+01	-4.233E+01	 5.110E+02	 1.587E+03	 2.222E+02	 1.483E+02	 1.676E+02	 7.767E-01	 1.365E+02	-1.060E+00
   7.550	 1.267E+01	-3.549E+00	 2.048E+00	-4.257E-01	 2.919E+01	-1.345E+00	 6.425E+00	-6.556E-01	 4.702E+00	 2.106E+00	 3.209E+00	 2.823E+02	-3.549E+00	 8.312E+01	-3.981E+01	 4.782E+02	 1.562E+03	 2.381E+02	 1.204E+02	 1.668E+02	-7.647E-01	 1.387E+02	-5.869E-02
   7.600	 1.273E+01	-3.774E+00	 2.013E+00	-4.122E-01	 2.847E+01	-1.209E+00	 6.442E+00	-5.695E-01	 4.853E+00	 2.286E+00	 2.904E+00	 2.555E+02	-3.774E+00	 8.239E+01	-3.661E+01	 4.385E+02	 1.543E+03	 2.505E+02	 9.059E+01	 1.678E+02	-2.583E+00	 1.418E+02	 1.083E+00
   7.650	 1.279E+01	-4.011E+00	 1.983E+00	-3.980E-01	 2.787E+01	-1.325E+00	 5.797E+00	-3.597E-01	 5.021E+00	 1.361E+00	 2.859E+00	 2.515E+02	-4.011E+00	 8.113E+01	-3.305E+01	 3.946E+02	 1.522E+03	 2.588E+02	 5.969E+01	 1.703E+02	-3.581E+00	 1.453E+02	 4.269E-01
   7.700	 1.284E+01	-4.249E+00	 1.956E+00	-3.822E-01	 2.682E+01	-1.140E+00	 6.007E+00	-3.170E-01	 5.171E+00	 1.461E+00	 2.465E+00	 2.169E+02	-4.249E+00	 8.040E+01	-2.907E+01	 3.465E+02	 1.505E+03	 2.634E+02	 2.832E+01	 1.743E+02	-3.835E+00	 1.496E+02	-2.098E+00
   7.750	 1.291E+01	-4.499E+00	 1.932E+00	-3.660E-01	 2.418E+01	-8.537E-01	 6.472E+00	-3.560E-01	 5.336E+00	 1.887E+00	 2.780E+00	 2.445E+02	-4.499E+00	 8.045E+01	-2.499E+01	 2.962E+02	 1.493E+03	 2.644E+02	-3.123E+00	 1.794E+02	-3.545E+00	 1.555E+02	-5.438E+00
   7.800	 1.297E+01	-4.749E+00	 1.909E+00	-3.485E-01	 2.398E+01	-7.775E-01	 6.395E+00	-2.975E-01	 5.482E+00	 1.637E+00	 2.289E+00	 2.014E+02	-4.749E+00	 7.952E+01	-2.055E+01	 2.432E+02	 1.475E+03	 2.617E+02	-3.463E+01	 1.848E+02	-3.910E+00	 1.632E+02	-7.501E+00
   7.850	 1.303E+01	-5.012E+00	 1.886E+00	-3.311E-01	 2.369E+01	-6.201E-02	 7.066E+00	-4.933E-01	 5.643E+00	 3.750E+00	 1.234E+00	 1.086E+02	-5.012E+00	 7.956E+01	-1.571E+01	 1.870E+02	 1.464E+03	 2.553E+02	-6.582E+01	 1.909E+02	-5.191E+00	 1.728E+02	-7.514E+00
   7.900	 1.310E+01	-5.276E+00	 1.864E+00	-3.131E-01	 2.379E+01	-4.461E-03	 6.827E+00	-3.824E-01	 5.788E+00	 3.324E+00	 1.654E+00	 1.455E+02	-5.276E+00	 7.864E+01	-1.113E+01	 1.330E+02	 1.447E+03	 2.452E+02	-9.601E+01	 1.974E+02	-6.458E+00	 1.832E+02	-6.588E+00
   7.950	 1.316E+01	-5.551E+00	 1.844E+00	-2.930E-01	 2.475E+01	-2.076E-01	 6.357E+00	-1.699E-01	 5.876E+00	 2.016E+00	 1.728E+00	 1.520E+02	-5.551E+00	 7.703E+01	-6.523E+00	 7.893E+01	 1.427E+03	 2.313E+02	-1.246E+02	 2.044E+02	-7.647E+00	 1.937E+02	-5.752E+00
   8.000	 1.323E+01	-5.827E+00	 1.824E+00	-2.746E-01	 2.459E+01	-5.602E-02	 6.170E+00	-1.376E-01	 6.027E+00	 2.106E+00	 1.657E+00	 1.457E+02	-5.827E+00	 7.616E+01	-1.726E+00	 2.254E+01	 1.411E+03	 2.142E+02	-1.511E+02	 2.122E+02	-8.198E+00	 2.039E+02	-6.193E+00
   8.050	 1.330E+01	-6.115E+00	 1.804E+00	-2.562E-01	 2.469E+01	-3.442E-01	 5.704E+00	-1.371E-02	 6.194E+00	 9.295E-01	 2.022E+00	 1.779E+02	-6.115E+00	 7.490E+01	 2.853E+00	-3.286E+01	 1.393E+03	 1.941E+02	-1.750E+02	 2.203E+02	-7.908E+00	 2.138E+02	-8.066E+00
   8.100	 1.337E+01	-6.402E+00	 1.785E+00	-2.377E-01	 2.467E+01	-4.139E-01	 5.031E+00	 6.087E-03	 6.351E+00	 6.883E-01	 1.119E+00	 9.844E+01	-6.402E+00	 7.368E+01	 7.588E+00	-8.894E+01	 1.375E+03	 1.714E+02	-1.964E+02	 2.283E+02	-7.752E+00	 2.240E+02	-9.937E+00
   8.150	 1.345E+01	-6.701E+00	 1.766E+00	-2.204E-01	 2.341E+01	 2.960E-01	 5.920E+00	-3.121E-01	 6.516E+00	 3.176E+00	 6.729E-01	 5.919E+01	-6.701E+00	 7.446E+01	 1.213E+01	-1.429E+02	 1.370E+03	 1.466E+02	-2.153E+02	 2.364E+02	-7.720E+00	 2.348E+02	-1.095E+01
   8.200	 1.352E+01	-7.001E+00	 1.749E+00	-2.021E-01	 2.511E+01	-2.646E-01	 5.118E+00	-9.364E-02	 6.590E+00	 1.054E+00	 1.068E+00	 9.396E+01	-7.001E+00	 7.293E+01	 1.591E+01	-1.886E+02	 1.352E+03	 1.196E+02	-2.309E+02	 2.434E+02	-7.912E+00	 2.453E+02	-1.063E+01
   8.250	 1.360E+01	-7.312E+00	 1.734E+00	-1.886E-01	 2.515E+01	-2.706E-01	 4.746E+00	-5.487E-02	 6.756E+00	 6.259E-01	 1.762E+00	 1.550E+02	-7.312E+00	 7.202E+01	 1.960E+01	-2.319E+02	 1.339E+03	 9.086E+01	-2.432E+02	 2.499E+02	-8.314E+00	 2.554E+02	-9.321E+00
   8.300	 1.367E+01	-7.624E+00	 1.721E+00	-1.770E-01	 2.526E+01	-2.658E-01	 3.889E+00	-2.616E-02	 6.922E+00	 3.347E-01	 1.803E+00	 1.586E+02	-7.624E+00	 7.103E+01	 2.308E+01	-2.720E+02	 1.328E+03	 6.088E+01	-2.518E+02	 2.561E+02	-8.738E+00	 2.643E+02	-7.931E+00
   8.350	 1.375E+01	-7.946E+00	 1.712E+00	-1.670E-01	 2.323E+01	 1.526E-01	 4.291E+00	-2.421E-01	 7.086E+00	 1.653E+00	 2.032E+00	 1.787E+02	-7.946E+00	 7.170E+01	 2.608E+01	-3.080E+02	 1.328E+03	 3.027E+01	-2.570E+02	 2.620E+02	-8.538E+00	 2.718E+02	-7.581E+00
   8.400	 1.383E+01	-8.269E+00	 1.705E+00	-1.568E-01	 2.487E+01	 1.585E-01	 4.214E+00	-3.366E-01	 7.176E+00	 1.858E+00	 9.636E-01	 8.477E+01	-8.269E+00	 7.145E+01	 2.871E+01	-3.392E+02	 1.324E+03	-6.309E-01	-2.583E+02	 2.670E+02	-8.152E+00	 2.776E+02	-7.965E+00
   8.450	 1.391E+01	-8.602E+00	 1.700E+00	-1.510E-01	 2.420E+01	 4.845E-02	 4.147E+00	-3.956E-01	 7.340E+00	 1.495E+00	 1.285E+00	 1.130E+02	-8.602E+00	 7.145E+01	 3.071E+01	-3.639E+02	 1.323E+03	-3.127E+01	-2.560E+02	 2.710E+02	-7.106E+00	 2.822E+02	-8.893E+00
   8.500	 1.400E+01	-8.936E+00	 1.698E+00	-1.482E-01	 2.447E+01	-4.278E-01	 3.226E+00	-2.955E-01	 7.514E+00	-8.202E-02	 1.844E+00	 1.622E+02	-8.936E+00	 7.080E+01	 3.216E+01	-3.821E+02	 1.320E+03	-6.143E+01	-2.500E+02	 2.736E+02	-6.209E+00	 2.858E+02	-9.059E+00
   8.550	 1.408E+01	-9.280E+00	 1.699E+00	-1.482E-01	 2.206E+01	-9.484E-02	 3.782E+00	-5.075E-01	 7.686E+00	 1.242E+00	 2.466E+00	 2.170E+02	-9.280E+00	 7.201E+01	 3.320E+01	-3.953E+02	 1.329E+03	-9.103E+01	-2.410E+02	 2.753E+02	-5.736E+00	 2.887E+02	-7.966E+00
   8.600	 1.417E+01	-9.624E+00	 1.702E+00	-1.510E-01	 2.237E+01	 6.056E-01	 4.424E+00	-8.242E-01	 7.857E+00	 4.140E+00	 1.378E+00	 1.212E+02	-9.624E+00	 7.298E+01	 3.417E+01	-4.049E+02	 1.338E+03	-1.196E+02	-2.283E+02	 2.760E+02	-6.070E+00	 2.901E+02	-5.619E+00
   8.650	 1.425E+01	-9.978E+00	 1.707E+00	-1.540E-01	 2.293E+01	-1.166E-02	 4.072E+00	-6.693E-01	 7.953E+00	 2.393E+00	 1.906E+00	 1.676E+02	-9.978E+00	 7.258E+01	 3.391E+01	-4.031E+02	 1.340E+03	-1.462E+02	-2.122E+02	 2.752E+02	-5.762E+00	 2.897E+02	-3.792E+00
   8.700	 1.434E+01	-1.033E+01	 1.712E+00	-1.623E-01	 2.308E+01	-5.902E-01	 3.185E+00	-5.197E-01	 8.142E+00	 7.405E-01	 2.601E+00	 2.288E+02	-1.033E+01	 7.219E+01	 3.323E+01	-3.962E+02	 1.343E+03	-1.705E+02	-1.931E+02	 2.735E+02	-4.960E+00	 2.874E+02	-2.923E+00
   8.750	 1.443E+01	-1.070E+01	 1.718E+00	-1.729E-01	 2.029E+01	-3.882E-01	 3.901E+00	-6.943E-01	 8.330E+00	 1.853E+00	 3.232E+00	 2.843E+02	-1.070E+01	 7.372E+01	 3.204E+01	-3.838E+02	 1.357E+03	-1.926E+02	-1.716E+02	 2.713E+02	-3.750E+00	 2.837E+02	-2.977E+00
   8.800	 1.452E+01	-1.106E+01	 1.723E+00	-1.857E-01	 2.078E+01	 2.339E-01	 4.685E+00	-9.901E-01	 8.514E+00	 4.595E+00	 1.711E+00	 1.505E+02	-1.106E+01	 7.485E+01	 3.083E+01	-3.681E+02	 1.368E+03	-2.119E+02	-1.474E+02	 2.680E+02	-3.108E+00	 2.787E+02	-2.767E+00
   8.850	 1.461E+01	-1.144E+01	 1.727E+00	-1.981E-01	 2.156E+01	-4.166E-01	 4.414E+00	-7.956E-01	 8.615E+00	 2.560E+00	 2.014E+00	 1.772E+02	-1.144E+01	 7.442E+01	 2.844E+01	-3.408E+02	 1.369E+03	-2.283E+02	-1.211E+02	 2.631E+02	-2.146E+00	 2.728E+02	-2.417E+00
   8.900	 1.470E+01	-1.181E+01	 1.728E+00	-2.152E-01	 2.162E+01	-7.016E-01	 4.314E+00	-6.951E-01	 8.802E+00	 1.735E+00	 2.735E+00	 2.406E+02	-1.181E+01	 7.443E+01	 2.565E+01	-3.085E+02	 1.371E+03	-2.415E+02	-9.289E+01	 2.574E+02	-1.495E+00	 2.662E+02	-1.239E+00
   8.950	 1.480E+01	-1.219E+01	 1.726E+00	-2.344E-01	 1.927E+01	-5.609E-01	 4.451E+00	-7.377E-01	 9.005E+00	 2.379E+00	 3.382E+00	 2.975E+02	-1.219E+01	 7.517E+01	 2.245E+01	-2.713E+02	 1.377E+03	-2.515E+02	-6.312E+01	 2.511E+02	-1.166E+00	 2.588E+02	 4.761E-01
   9.000	 1.489E+01	-1.258E+01	 1.720E+00	-2.547E-01	 1.936E+01	 1.728E-01	 5.459E+00	-9.815E-01	 9.207E+00	 5.297E+00	 2.476E+00	 2.178E+02	-1.258E+01	 7.609E+01	 1.922E+01	-2.317E+02	 1.381E+03	-2.576E+02	-3.216E+01	 2.442E+02	-1.302E+00	 2.504E+02	 2.282E+00
   9.050	 1.499E+01	-1.297E+01	 1.711E+00	-2.725E-01	 2.074E+01	-4.682E-01	 4.936E+00	-7.029E-01	 9.311E+00	 2.891E+00	 2.853E+00	 2.509E+02	-1.297E+01	 7.493E+01	 1.506E+01	-1.836E+02	 1.370E+03	-2.600E+02	-8.660E-01	 2.364E+02	-7.230E-01	 2.407E+02	 2.871E+00
   9.100	 1.508E+01	-1.336E+01	 1.696E+00	-2.935E-01	 2.110E+01	-6.522E-01	 4.705E+00	-5.787E-01	 9.517E+00	 2.013E+00	 3.009E+00	 2.647E+02	-1.336E+01	 7.422E+01	 1.089E+01	-1.345E+02	 1.360E+03	-2.586E+02	 3.045E+01	 2.282E+02	 2.298E-02	 2.303E+02	 2.652E+00
   9.150	 1.518E+01	-1.376E+01	 1.676E+00	-3.141E-01	 2.104E+01	-6.578E-01	 4.185E+00	-5.076E-01	 9.719E+00	 1.714E+00	 2.341E+00	 2.059E+02	-1.376E+01	 7.339E+01	 6.680E+00	-8.413E+01	 1.347E+03	-2.534E+02	 6.150E+01	 2.196E+02	 5.000E-01	 2.195E+02	 2.323E+00
   9.200	 1.528E+01	-1.416E+01	 1.651E+00	-3.346E-01	 1.945E+01	 2.345E-01	 5.645E+00	-8.016E-01	 9.930E+00	 5.032E+00	 2.016E+00	 1.773E+02	-1.416E+01	 7.466E+01	 2.225E+00	-3.199E+01	 1.344E+03	-2.444E+02	 9.201E+01	 2.109E+02	 7.606E-01	 2.090E+02	 2.260E+00
   9.250	 1.538E+01	-1.457E+01	 1.622E+00	-3.511E-01	 2.128E+01	-4.003E-01	 4.949E+00	-4.794E-01	 1.003E+01	 2.431E+00	 2.377E+00	 2.091E+02	-1.457E+01	 7.307E+01	-2.733E+00	 2.505E+01	 1.321E+03	-2.318E+02	 1.211E+02	 2.014E+02	 8.653E-01	 1.980E+02	 2.654E+00
   9.300	 1.548E+01	-1.498E+01	 1.587E+00	-3.700E-01	 2.118E+01	-4.676E-01	 4.706E+00	-3.420E-01	 1.024E+01	 1.645E+00	 2.962E+00	 2.605E+02	-1.498E+01	 7.195E+01	-7.517E+00	 8.077E+01	 1.299E+03	-2.156E+02	 1.486E+02	 1.919E+02	 7.368E-01	 1.870E+02	 3.309E+00
   9.350	 1.558E+01	-1.539E+01	 1.549E+00	-3.874E-01	 2.093E+01	-2.794E-01	 4.024E+00	-2.907E-01	 1.045E+01	 1.702E+00	 2.323E+00	 2.043E+02	-1.539E+01	 7.069E+01	-1.198E+01	 1.339E+02	 1.274E+03	-1.959E+02	 1.740E+02	 1.824E+02	 1.924E-01	 1.758E+02	 3.951E+00
   9.400	 1.569E+01	-1.581E+01	 1.506E+00	-4.032E-01	 1.928E+01	 6.800E-01	 5.385E+00	-5.801E-01	 1.067E+01	 4.877E+00	 1.939E+00	 1.706E+02	-1.581E+01	 7.094E+01	-1.622E+01	 1.844E+02	 1.257E+03	-1.733E+02	 1.969E+02	 1.736E+02	-1.129E-01	 1.648E+02	 3.785E+00
   9.450	 1.579E+01	-1.623E+01	 1.461E+00	-4.140E-01	 2.099E+01	 1.061E-01	 4.555E+00	-2.778E-01	 1.077E+01	 2.126E+00	 2.100E+00	 1.847E+02	-1.623E+01	 6.938E+01	-2.094E+01	 2.372E+02	 1.227E+03	-1.480E+02	 2.167E+02	 1.644E+02	-6.538E-02	 1.536E+02	 2.757E+00
   9.500	 1.589E+01	-1.666E+01	 1.413E+00	-4.256E-01	 2.075E+01	 5.618E-02	 4.239E+00	-1.581E-01	 1.098E+01	 1.101E+00	 2.318E+00	 2.039E+02	-1.666E+01	 6.814E+01	-2.511E+01	 2.848E+02	 1.197E+03	-1.204E+02	 2.334E+02	 1.556E+02	-4.559E-02	 1.429E+02	 1.479E+00
   9.550	 1.600E+01	-1.709E+01	 1.363E+00	-4.350E-01	 2.037E+01	 6.329E-02	 3.370E+00	-6.348E-02	 1.118E+01	 4.112E-01	 1.918E+00	 1.687E+02	-1.709E+01	 6.679E+01	-2.883E+01	 3.275E+02	 1.166E+03	-9.073E+01	 2.466E+02	 1.471E+02	-4.832E-01	 1.330E+02	 6.482E-01
   9.600	 1.611E+01	-1.752E+01	 1.313E+00	-4.421E-01	 1.789E+01	 5.502E-01	 3.901E+00	-1.537E-01	 1.138E+01	 1.529E+00	 1.998E+00	 1.757E+02	-1.752E+01	 6.618E+01	-3.209E+01	 3.651E+02	 1.140E+03	-5.966E+01	 2.561E+02	 1.395E+02	-1.117E+00	 1.241E+02	 2.318E-01
   9.650	 1.621E+01	-1.796E+01	 1.263E+00	-4.449E-01	 1.951E+01	 7.929E-01	 4.034E+00	-1.215E-01	 1.149E+01	 1.891E+00	 9.467E-01	 8.328E+01	-1.796E+01	 6.491E+01	-3.490E+01	 3.977E+02	 1.109E+03	-2.740E+01	 2.618E+02	 1.323E+02	-2.327E+00	 1.160E+02	 3.420E-01
   9.700	 1.632E+01	-1.839E+01	 1.211E+00	-4.472E-01	 1.835E+01	 8.672E-01	 3.970E+00	-5.012E-02	 1.168E+01	 1.522E+00	 1.234E+00	 1.085E+02	-1.839E+01	 6.387E+01	-3.739E+01	 4.254E+02	 1.079E+03	 5.278E+00	 2.634E+02	 1.258E+02	-3.125E+00	 1.088E+02	-1.023E-01
   9.750	 1.643E+01	-1.883E+01	 1.160E+00	-4.471E-01	 1.792E+01	 4.698E-01	 2.921E+00	 1.599E-01	 1.189E+01	-3.754E-01	 1.591E+00	 1.399E+02	-1.883E+01	 6.244E+01	-3.953E+01	 4.481E+02	 1.046E+03	 3.788E+01	 2.610E+02	 1.200E+02	-3.728E+00	 1.024E+02	-1.177E+00
   9.800	 1.654E+01	-1.928E+01	 1.110E+00	-4.443E-01	 1.496E+01	 8.441E-01	 3.428E+00	 8.833E-02	 1.208E+01	 3.961E-01	 1.704E+00	 1.499E+02	-1.928E+01	 6.169E+01	-4.074E+01	 4.617E+02	 1.018E+03	 6.983E+01	 2.545E+02	 1.155E+02	-4.266E+00	 9.711E+01	-2.741E+00
   9.850	 1.665E+01	-1.973E+01	 1.061E+00	-4.373E-01	 1.665E+01	 1.193E+00	 3.637E+00	 9.510E-02	 1.218E+01	 9.821E-01	-6.332E-02	-5.570E+00	-1.973E+01	 6.023E+01	-4.128E+01	 4.687E+02	 9.855E+02	 1.009E+02	 2.440E+02	 1.115E+02	-5.371E+00	 9.291E+01	-4.053E+00
   9.900	 1.676E+01	-2.017E+01	 1.013E+00	-4.298E-01	 1.526E+01	 1.258E+00	 3.648E+00	 1.829E-01	 1.236E+01	 4.665E-01	 9.880E-02	 8.691E+00	-2.017E+01	 5.889E+01	-4.153E+01	 4.710E+02	 9.531E+02	 1.303E+02	 2.299E+02	 1.083E+02	-6.032E+00	 9.006E+01	-5.557E+00
   9.950	 1.687E+01	-2.063E+01	 9.665E-01	-4.200E-01	 1.466E+01	 8.407E-01	 2.745E+00	 4.185E-01	 1.255E+01	-1.470E+00	 5.351E-01	 4.707E+01	-2.063E+01	 5.707E+01	-4.143E+01	 4.683E+02	 9.174E+02	 1.576E+02	 2.123E+02	 1.057E+02	-6.813E+00	 8.832E+01	-6.668E+00
  10.000	 1.698E+01	-2.108E+01	 9.212E-01	-4.078E-01	 1.185E+01	 1.280E+00	 3.267E+00	 3.627E-01	 1.273E+01	-4.836E-01	 7.714E-01	 6.786E+01	-2.108E+01	 5.598E+01	-4.028E+01	 4.556E+02	 8.876E+02	 1.827E+02	 1.911E+02	 1.041E+02	-7.821E+00	 8.791E+01	-7.465E+00
  10.050	 1.710E+01	-2.154E+01	 8.784E-01	-3.923E-01	 1.265E+01	 1.950E+00	 3.891E+00	 2.842E-01	 1.284E+01	 1.192E+00	-6.241E-01	-5.490E+01	-2.154E+01	 5.455E+01	-3.833E+01	 4.351E+02	 8.561E+02	 2.049E+02	 1.668E+02	 1.033E+02	-9.257E+00	 8.814E+01	-7.990E+00
  10.100	 1.721E+01	-2.200E+01	 8.395E-01	-3.742E-01	 1.323E+01	 1.649E+00	 3.666E+00	 5.004E-01	 1.290E+01	-3.254E-01	-7.485E-01	-6.584E+01	-2.200E+01	 5.251E+01	-3.648E+01	 4.125E+02	 8.212E+02	 2.236E+02	 1.403E+02	 1.030E+02	-1.005E+01	 8.872E+01	-9.220E+00
  10.150	 1.732E+01	-2.246E+01	 8.051E-01	-3.559E-01	 1.268E+01	 1.541E+00	 3.581E+00	 6.373E-01	 1.301E+01	-1.125E+00	-5.864E-01	-5.158E+01	-2.246E+01	 5.061E+01	-3.392E+01	 3.825E+02	 7.892E+02	 2.387E+02	 1.116E+02	 1.035E+02	-1.054E+01	 8.988E+01	-1.085E+01
  10.200	 1.743E+01	-2.292E+01	 7.757E-01	-3.363E-01	 1.113E+01	 1.592E+00	 3.591E+00	 6.705E-01	 1.311E+01	-1.023E+00	-4.719E-01	-4.151E+01	-2.292E+01	 4.917E+01	-3.073E+01	 3.454E+02	 7.627E+02	 2.503E+02	 8.116E+01	 1.047E+02	-1.100E+01	 9.177E+01	-1.240E+01
  10.250	 1.755E+01	-2.339E+01	 7.511E-01	-3.158E-01	 1.074E+01	 1.959E+00	 3.991E+00	 6.189E-01	 1.321E+01	 9.294E-02	-1.053E+00	-9.261E+01	-2.339E+01	 4.803E+01	-2.690E+01	 3.015E+02	 7.405E+02	 2.581E+02	 4.955E+01	 1.064E+02	-1.176E+01	 9.425E+01	-1.327E+01
  10.300	 1.766E+01	-2.385E+01	 7.315E-01	-2.938E-01	 1.129E+01	 1.573E+00	 3.644E+00	 7.726E-01	 1.326E+01	-9.936E-01	-1.043E+00	-9.174E+01	-2.385E+01	 4.605E+01	-2.304E+01	 2.558E+02	 7.154E+02	 2.616E+02	 1.720E+01	 1.083E+02	-1.247E+01	 9.727E+01	-1.368E+01
  10.350	 1.778E+01	-2.432E+01	 7.161E-01	-2.723E-01	 1.090E+01	 1.414E+00	 3.488E+00	 8.453E-01	 1.336E+01	-1.350E+00	-1.021E+00	-8.984E+01	-2.432E+01	 4.436E+01	-1.876E+01	 2.056E+02	 6.935E+02	 2.612E+02	-1.534E+01	 1.107E+02	-1.316E+01	 1.007E+02	-1.377E+01
  10.400	 1.790E+01	-2.479E+01	 7.047E-01	-2.509E-01	 1.057E+01	 1.338E+00	 3.173E+00	 8.891E-01	 1.346E+01	-1.421E+00	-1.202E+00	-1.057E+02	-2.479E+01	 4.256E+01	-1.417E+01	 1.527E+02	 6.727E+02	 2.569E+02	-4.756E+01	 1.135E+02	-1.373E+01	 1.045E+02	-1.388E+01
  10.450	 1.801E+01	-2.526E+01	 6.968E-01	-2.299E-01	 9.525E+00	 1.795E+00	 3.853E+00	 7.955E-01	 1.355E+01	-2.754E-01	-1.191E+00	-1.048E+02	-2.526E+01	 4.213E+01	-9.415E+00	 9.747E+01	 6.615E+02	 2.489E+02	-7.874E+01	 1.172E+02	-1.396E+01	 1.086E+02	-1.427E+01
  10.500	 1.813E+01	-2.574E+01	 6.922E-01	-2.086E-01	 1.044E+01	 1.597E+00	 3.544E+00	 8.832E-01	 1.360E+01	-1.051E+00	-1.047E+00	-9.214E+01	-2.574E+01	 4.031E+01	-4.758E+00	 4.309E+01	 6.441E+02	 2.370E+02	-1.088E+02	 1.206E+02	-1.397E+01	 1.131E+02	-1.482E+01
  10.550	 1.824E+01	-2.621E+01	 6.904E-01	-1.885E-01	 1.053E+01	 1.525E+00	 3.344E+00	 9.048E-01	 1.369E+01	-1.339E+00	-1.025E+00	-9.014E+01	-2.621E+01	 3.897E+01	-5.942E-03	-1.256E+01	 6.311E+02	 2.216E+02	-1.371E+02	 1.243E+02	-1.395E+01	 1.181E+02	-1.512E+01
  10.600	 1.836E+01	-2.668E+01	 6.917E-01	-1.692E-01	 1.074E+01	 1.445E+00	 2.968E+00	 9.011E-01	 1.379E+01	-1.473E+00	-1.296E+00	-1.140E+02	-2.668E+01	 3.771E+01	 4.761E+00	-6.817E+01	 6.208E+02	 2.030E+02	-1.633E+02	 1.282E+02	-1.405E+01	 1.235E+02	-1.496E+01
  10.650	 1.848E+01	-2.716E+01	 6.962E-01	-1.513E-01	 1.017E+01	 1.835E+00	 3.542E+00	 7.725E-01	 1.388E+01	-5.238E-01	-1.360E+00	-1.197E+02	-2.716E+01	 3.792E+01	 9.416E+00	-1.229E+02	 6.212E+02	 1.815E+02	-1.869E+02	 1.325E+02	-1.411E+01	 1.290E+02	-1.446E+01
  10.700	 1.859E+01	-2.764E+01	 7.042E-01	-1.346E-01	 1.136E+01	 1.679E+00	 3.139E+00	 8.074E-01	 1.393E+01	-1.107E+00	-1.223E+00	-1.076E+02	-2.764E+01	 3.693E+01	 1.374E+01	-1.739E+02	 6.170E+02	 1.569E+02	-2.078E+02	 1.365E+02	-1.408E+01	 1.348E+02	-1.391E+01
  10.750	 1.871E+01	-2.811E+01	 7.157E-01	-1.204E-01	 1.156E+01	 1.614E+00	 2.976E+00	 8.038E-01	 1.402E+01	-1.434E+00	-1.034E+00	-9.094E+01	-2.811E+01	 3.652E+01	 1.783E+01	-2.224E+02	 6.185E+02	 1.304E+02	-2.254E+02	 1.405E+02	-1.390E+01	 1.404E+02	-1.343E+01
  10.800	 1.883E+01	-2.859E+01	 7.308E-01	-1.087E-01	 1.183E+01	 1.530E+00	 2.543E+00	 7.947E-01	 1.411E+01	-1.684E+00	-1.087E+00	-9.561E+01	-2.859E+01	 3.630E+01	 2.164E+01	-2.676E+02	 6.238E+02	 1.020E+02	-2.397E+02	 1.443E+02	-1.362E+01	 1.457E+02	-1.312E+01
  10.850	 1.895E+01	-2.907E+01	 7.495E-01	-9.955E-02	 1.105E+01	 1.689E+00	 2.719E+00	 6.991E-01	 1.420E+01	-1.312E+00	-9.779E-01	-8.602E+01	-2.907E+01	 3.709E+01	 2.511E+01	-3.090E+02	 6.377E+02	 7.218E+01	-2.502E+02	 1.480E+02	-1.314E+01	 1.508E+02	-1.302E+01
  10.900	 1.906E+01	-2.955E+01	 7.718E-01	-9.271E-02	 1.241E+01	 1.843E+00	 2.662E+00	 6.350E-01	 1.425E+01	-1.031E+00	-1.535E+00	-1.351E+02	-2.955E+01	 3.770E+01	 2.817E+01	-3.453E+02	 6.529E+02	 4.134E+01	-2.571E+02	 1.513E+02	-1.284E+01	 1.554E+02	-1.272E+01
  10.950	 1.918E+01	-3.003E+01	 7.974E-01	-8.967E-02	 1.236E+01	 1.838E+00	 2.620E+00	 6.045E-01	 1.434E+01	-1.211E+00	-1.410E+00	-1.241E+02	-3.003E+01	 3.855E+01	 3.065E+01	-3.753E+02	 6.719E+02	 9.951E+00	-2.600E+02	 1.540E+02	-1.236E+01	 1.593E+02	-1.236E+01
  11.000	 1.930E+01	-3.051E+01	 8.263E-01	-9.003E-02	 1.272E+01	 1.599E+00	 2.100E+00	 6.592E-01	 1.442E+01	-2.086E+00	-1.145E+00	-1.008E+02	-3.051E+01	 3.942E+01	 3.244E+01	-3.977E+02	 6.928E+02	-2.137E+01	-2.589E+02	 1.561E+02	-1.190E+01	 1.625E+02	-1.176E+01
  11.050	 1.942E+01	-3.099E+01	 8.579E-01	-9.401E-02	 1.184E+01	 1.854E+00	 2.360E+00	 5.512E-01	 1.451E+01	-1.502E+00	-9.673E-01	-8.509E+01	-3.099E+01	 4.093E+01	 3.397E+01	-4.155E+02	 7.202E+02	-5.264E+01	-2.542E+02	 1.577E+02	-1.150E+01	 1.649E+02	-1.106E+01
  11.100	 1.954E+01	-3.147E+01	 8.918E-01	-1.007E-01	 1.297E+01	 2.065E+00	 2.283E+00	 4.909E-01	 1.455E+01	-1.087E+00	-1.511E+00	-1.329E+02	-3.147E+01	 4.228E+01	 3.490E+01	-4.259E+02	 7.475E+02	-8.294E+01	-2.455E+02	 1.586E+02	-1.125E+01	 1.662E+02	-1.022E+01
  11.150	 1.965E+01	-3.195E+01	 9.273E-01	-1.113E-01	 1.264E+01	 2.108E+00	 2.262E+00	 4.626E-01	 1.464E+01	-1.196E+00	-1.358E+00	-1.195E+02	-3.195E+01	 4.377E+01	 3.513E+01	-4.288E+02	 7.767E+02	-1.120E+02	-2.333E+02	 1.589E+02	-1.071E+01	 1.666E+02	-9.697E+00
  11.200	 1.977E+01	-3.242E+01	 9.632E-01	-1.247E-01	 1.274E+01	 1.963E+00	 1.842E+00	 4.848E-01	 1.473E+01	-1.769E+00	-1.214E+00	-1.068E+02	-3.242E+01	 4.526E+01	 3.470E+01	-4.243E+02	 8.060E+02	-1.393E+02	-2.174E+02	 1.584E+02	-1.015E+01	 1.661E+02	-9.248E+00
  11.250	 1.989E+01	-3.290E+01	 9.987E-01	-1.406E-01	 1.178E+01	 2.075E+00	 2.064E+00	 4.117E-01	 1.481E+01	-1.498E+00	-1.153E+00	-1.014E+02	-3.290E+01	 4.696E+01	 3.385E+01	-4.140E+02	 8.371E+02	-1.647E+02	-1.987E+02	 1.575E+02	-9.636E+00	 1.646E+02	-8.721E+00
  11.300	 2.001E+01	-3.338E+01	 1.033E+00	-1.589E-01	 1.201E+01	 2.265E+00	 2.305E+00	 3.399E-01	 1.490E+01	-8.754E-01	-1.638E+00	-1.441E+02	-3.338E+01	 4.858E+01	 3.249E+01	-3.970E+02	 8.667E+02	-1.873E+02	-1.770E+02	 1.560E+02	-9.377E+00	 1.624E+02	-7.870E+00
  11.350	 2.012E+01	-3.386E+01	 1.064E+00	-1.785E-01	 1.240E+01	 2.167E+00	 2.106E+00	 3.819E-01	 1.494E+01	-1.340E+00	-1.492E+00	-1.312E+02	-3.386E+01	 5.002E+01	 3.036E+01	-3.715E+02	 8.933E+02	-2.076E+02	-1.526E+02	 1.537E+02	-9.028E+00	 1.596E+02	-7.144E+00
  11.400	 2.024E+01	-3.433E+01	 1.092E+00	-2.005E-01	 1.229E+01	 2.181E+00	 1.989E+00	 4.037E-01	 1.502E+01	-1.488E+00	-1.216E+00	-1.070E+02	-3.433E+01	 5.139E+01	 2.777E+01	-3.399E+02	 9.175E+02	-2.248E+02	-1.260E+02	 1.511E+02	-8.698E+00	 1.562E+02	-6.474E+00
  11.450	 2.036E+01	-3.481E+01	 1.115E+00	-2.233E-01	 1.131E+01	 2.245E+00	 1.955E+00	 3.868E-01	 1.510E+01	-1.322E+00	-1.122E+00	-9.870E+01	-3.481E+01	 5.285E+01	 2.428E+01	-3.029E+02	 9.393E+02	-2.386E+02	-9.726E+01	 1.481E+02	-8.511E+00	 1.524E+02	-5.851E+00
  11.500	 2.047E+01	-3.528E+01	 1.133E+00	-2.461E-01	 1.139E+01	 2.341E+00	 2.250E+00	 3.685E-01	 1.519E+01	-9.045E-01	-1.456E+00	-1.281E+02	-3.528E+01	 5.401E+01	 2.089E+01	-2.616E+02	 9.569E+02	-2.492E+02	-6.745E+01	 1.449E+02	-8.519E+00	 1.481E+02	-5.263E+00
  11.550	 2.059E+01	-3.575E+01	 1.144E+00	-2.679E-01	 1.178E+01	 2.193E+00	 2.011E+00	 4.496E-01	 1.522E+01	-1.496E+00	-1.512E+00	-1.330E+02	-3.575E+01	 5.499E+01	 1.692E+01	-2.142E+02	 9.700E+02	-2.563E+02	-3.649E+01	 1.411E+02	-8.488E+00	 1.438E+02	-5.044E+00
  11.600	 2.070E+01	-3.622E+01	 1.147E+00	-2.901E-01	 1.184E+01	 2.222E+00	 1.888E+00	 5.053E-01	 1.530E+01	-1.692E+00	-1.475E+00	-1.298E+02	-3.622E+01	 5.577E+01	 1.270E+01	-1.631E+02	 9.785E+02	-2.596E+02	-4.985E+00	 1.371E+02	-8.484E+00	 1.394E+02	-5.133E+00
  11.650	 2.082E+01	-3.669E+01	 1.144E+00	-3.112E-01	 1.105E+01	 2.342E+00	 1.823E+00	 5.374E-01	 1.538E+01	-1.641E+00	-1.409E+00	-1.239E+02	-3.669E+01	 5.641E+01	 8.228E+00	-1.089E+02	 9.826E+02	-2.591E+02	 2.663E+01	 1.329E+02	-8.580E+00	 1.347E+02	-5.423E+00
  11.700	 2.094E+01	-3.716E+01	 1.133E+00	-3.309E-01	 1.115E+01	 2.693E+00	 2.105E+00	 5.130E-01	 1.546E+01	-7.220E-01	-1.542E+00	-1.356E+02	-3.716E+01	 5.769E+01	 3.190E+00	-5.198E+01	 9.844E+02	-2.543E+02	 5.842E+01	 1.284E+02	-8.939E+00	 1.299E+02	-5.803E+00
  11.750	 2.105E+01	-3.763E+01	 1.114E+00	-3.474E-01	 1.149E+01	 2.537E+00	 1.827E+00	 6.355E-01	 1.550E+01	-1.621E+00	-1.480E+00	-1.302E+02	-3.763E+01	 5.786E+01	-2.111E+00	 6.710E+00	 9.774E+02	-2.459E+02	 8.928E+01	 1.236E+02	-9.430E+00	 1.245E+02	-6.206E+00
  11.800	 2.117E+01	-3.810E+01	 1.089E+00	-3.621E-01	 1.172E+01	 2.470E+00	 1.648E+00	 7.054E-01	 1.557E+01	-2.082E+00	-1.787E+00	-1.572E+02	-3.810E+01	 5.802E+01	-7.265E+00	 6.403E+01	 9.666E+02	-2.337E+02	 1.189E+02	 1.188E+02	-1.022E+01	 1.187E+02	-6.596E+00
  11.850	 2.128E+01	-3.856E+01	 1.057E+00	-3.744E-01	 1.175E+01	 2.502E+00	 1.305E+00	 7.591E-01	 1.564E+01	-2.358E+00	-2.234E+00	-1.965E+02	-3.856E+01	 5.795E+01	-1.213E+01	 1.200E+02	 9.520E+02	-2.179E+02	 1.466E+02	 1.137E+02	-1.108E+01	 1.125E+02	-7.299E+00
  11.900	 2.139E+01	-3.902E+01	 1.020E+00	-3.847E-01	 1.134E+01	 2.797E+00	 1.672E+00	 7.620E-01	 1.570E+01	-1.797E+00	-2.346E+00	-2.064E+02	-3.902E+01	 5.791E+01	-1.672E+01	 1.751E+02	 9.366E+02	-1.989E+02	 1.720E+02	 1.083E+02	-1.179E+01	 1.063E+02	-8.592E+00
  11.950	 2.150E+01	-3.948E+01	 9.794E-01	-3.926E-01	 1.156E+01	 2.870E+00	 1.403E+00	 8.721E-01	 1.574E+01	-2.386E+00	-2.247E+00	-1.976E+02	-3.948E+01	 5.732E+01	-2.106E+01	 2.278E+02	 9.149E+02	-1.767E+02	 1.946E+02	 1.025E+02	-1.241E+01	 1.000E+02	-1.027E+01
  12.000	 2.162E+01	-3.994E+01	 9.351E-01	-3.984E-01	 1.115E+01	 3.011E+00	 1.277E+00	 9.174E-01	 1.579E+01	-2.587E+00	-2.426E+00	-2.134E+02	-3.994E+01	 5.631E+01	-2.493E+01	 2.766E+02	 8.907E+02	-1.519E+02	 2.142E+02	 9.671E+01	-1.320E+01	 9.345E+01	-1.188E+01
  12.050	 2.173E+01	-4.039E+01	 8.880E-01	-4.017E-01	 1.057E+01	 3.050E+00	 8.785E-01	 9.610E-01	 1.585E+01	-2.912E+00	-2.592E+00	-2.280E+02	-4.039E+01	 5.513E+01	-2.828E+01	 3.207E+02	 8.651E+02	-1.247E+02	 2.304E+02	 9.091E+01	-1.412E+01	 8.665E+01	-1.329E+01
  12.100	 2.184E+01	-4.084E+01	 8.387E-01	-4.020E-01	 9.631E+00	 3.077E+00	 5.833E-01	 9.355E-01	 1.591E+01	-2.721E+00	-2.562E+00	-2.253E+02	-4.084E+01	 5.373E+01	-3.270E+01	 3.629E+02	 8.378E+02	-9.531E+01	 2.443E+02	 8.552E+01	-1.523E+01	 7.962E+01	-1.442E+01
  12.150	 2.195E+01	-4.129E+01	 7.879E-01	-3.990E-01	 9.650E+00	 2.879E+00	 7.214E-01	 1.011E+00	 1.593E+01	-3.159E+00	-3.187E+00	-2.804E+02	-4.129E+01	 5.260E+01	-3.528E+01	 3.969E+02	 8.096E+02	-6.470E+01	 2.536E+02	 7.976E+01	-1.661E+01	 7.316E+01	-1.511E+01
  12.200	 2.206E+01	-4.174E+01	 7.355E-01	-3.949E-01	 8.907E+00	 2.883E+00	 1.113E+00	 1.058E+00	 1.598E+01	-3.350E+00	-3.440E+00	-3.026E+02	-4.174E+01	 5.142E+01	-3.762E+01	 4.276E+02	 7.798E+02	-3.299E+01	 2.593E+02	 7.426E+01	-1.776E+01	 6.675E+01	-1.617E+01
  12.250	 2.217E+01	-4.218E+01	 6.820E-01	-3.892E-01	 8.189E+00	 3.088E+00	 9.601E-01	 1.074E+00	 1.601E+01	-3.192E+00	-3.135E+00	-2.758E+02	-4.218E+01	 5.013E+01	-3.959E+01	 4.542E+02	 7.478E+02	-7.688E-01	 2.609E+02	 6.969E+01	-1.857E+01	 6.019E+01	-1.770E+01
  12.300	 2.228E+01	-4.262E+01	 6.278E-01	-3.813E-01	 6.908E+00	 3.215E+00	 5.813E-01	 1.085E+00	 1.605E+01	-3.087E+00	-2.925E+00	-2.573E+02	-4.262E+01	 4.858E+01	-4.070E+01	 4.748E+02	 7.132E+02	 3.091E+01	 2.588E+02	 6.620E+01	-1.937E+01	 5.403E+01	-1.913E+01
  12.350	 2.239E+01	-4.306E+01	 5.730E-01	-3.699E-01	 6.560E+00	 3.146E+00	 4.015E-01	 1.102E+00	 1.607E+01	-3.171E+00	-3.264E+00	-2.871E+02	-4.306E+01	 4.696E+01	-4.185E+01	 4.893E+02	 6.758E+02	 6.244E+01	 2.535E+02	 6.294E+01	-2.044E+01	 4.956E+01	-2.012E+01
  12.400	 2.249E+01	-4.350E+01	 5.173E-01	-3.558E-01	 5.842E+00	 3.010E+00	 5.232E-01	 1.086E+00	 1.611E+01	-3.161E+00	-3.866E+00	-3.401E+02	-4.350E+01	 4.512E+01	-4.247E+01	 4.974E+02	 6.354E+02	 9.351E+01	 2.443E+02	 5.950E+01	-2.171E+01	 4.735E+01	-2.081E+01
  12.450	 2.260E+01	-4.393E+01	 4.611E-01	-3.396E-01	 5.301E+00	 2.758E+00	 7.190E-01	 1.142E+00	 1.614E+01	-3.815E+00	-3.740E+00	-3.290E+02	-4.393E+01	 4.302E+01	-4.279E+01	 5.018E+02	 5.913E+02	 1.233E+02	 2.315E+02	 5.661E+01	-2.274E+01	 4.621E+01	-2.161E+01
  12.500	 2.270E+01	-4.436E+01	 4.050E-01	-3.219E-01	 4.424E+00	 2.805E+00	 8.789E-01	 1.163E+00	 1.616E+01	-3.819E+00	-3.695E+00	-3.250E+02	-4.436E+01	 4.053E+01	-4.248E+01	 5.004E+02	 5.432E+02	 1.511E+02	 2.152E+02	 5.498E+01	-2.376E+01	 4.505E+01	-2.243E+01
  12.550	 2.281E+01	-4.478E+01	 3.496E-01	-3.026E-01	 3.794E+00	 2.979E+00	 7.242E-01	 1.190E+00	 1.619E+01	-3.528E+00	-3.709E+00	-3.262E+02	-4.478E+01	 3.768E+01	-4.158E+01	 4.930E+02	 4.918E+02	 1.763E+02	 1.957E+02	 5.449E+01	-2.471E+01	 4.384E+01	-2.336E+01
  12.600	 2.291E+01	-4.521E+01	 2.955E-01	-2.812E-01	 2.784E+00	 2.921E+00	 5.513E-01	 1.278E+00	 1.620E+01	-3.924E+00	-3.938E+00	-3.464E+02	-4.521E+01	 3.449E+01	-4.030E+01	 4.806E+02	 4.374E+02	 1.990E+02	 1.737E+02	 5.424E+01	-2.561E+01	 4.346E+01	-2.443E+01
  12.650	 2.302E+01	-4.562E+01	 2.418E-01	-2.579E-01	 2.144E+00	 2.687E+00	 8.136E-01	 1.367E+00	 1.622E+01	-4.421E+00	-4.387E+00	-3.859E+02	-4.562E+01	 3.125E+01	-3.858E+01	 4.628E+02	 3.834E+02	 2.187E+02	 1.494E+02	 5.400E+01	-2.639E+01	 4.432E+01	-2.569E+01
  12.700	 2.312E+01	-4.604E+01	 1.895E-01	-2.337E-01	 3.683E+00	 2.735E+00	 1.246E+00	 1.452E+00	 1.623E+01	-4.671E+00	-4.703E+00	-4.137E+02	-4.604E+01	 2.779E+01	-3.641E+01	 4.415E+02	 3.296E+02	 2.353E+02	 1.232E+02	 5.383E+01	-2.697E+01	 4.613E+01	-2.709E+01
  12.750	 2.322E+01	-4.645E+01	 1.426E-01	-2.101E-01	 2.484E+00	 2.978E+00	 1.214E+00	 1.601E+00	 1.623E+01	-4.747E+00	-4.726E+00	-4.157E+02	-4.645E+01	 2.376E+01	-3.381E+01	 4.158E+02	 2.710E+02	 2.479E+02	 9.515E+01	 5.381E+01	-2.740E+01	 4.828E+01	-2.843E+01
  12.800	 2.332E+01	-4.686E+01	 1.011E-01	-1.862E-01	 1.850E+00	 3.270E+00	 6.328E-01	 1.717E+00	 1.623E+01	-4.769E+00	-4.738E+00	-4.168E+02	-4.686E+01	 1.966E+01	-3.078E+01	 3.852E+02	 2.133E+02	 2.568E+02	 6.568E+01	 5.415E+01	-2.781E+01	 5.008E+01	-2.946E+01
  12.850	 2.342E+01	-4.726E+01	 6.468E-02	-1.614E-01	 6.487E-01	 3.301E+00	 7.933E-01	 1.814E+00	 1.623E+01	-5.274E+00	-5.268E+00	-4.634E+02	-4.726E+01	 1.544E+01	-2.733E+01	 3.490E+02	 1.598E+02	 2.620E+02	 3.512E+01	 5.464E+01	-2.829E+01	 5.116E+01	-3.007E+01
  12.900	 2.352E+01	-4.766E+01	 3.196E-02	-1.358E-01	 6.684E-01	 3.268E+00	 1.320E+00	 1.900E+00	 1.621E+01	-5.625E+00	-5.731E+00	-5.041E+02	-4.766E+01	 1.191E+01	-2.356E+01	 3.082E+02	 1.158E+02	 2.636E+02	 4.294E+00	 5.564E+01	-2.855E+01	 5.139E+01	-3.047E+01
  12.950	 2.361E+01	-4.805E+01	 3.157E-03	-1.102E-01	 8.711E-01	 3.153E+00	 1.428E+00	 1.974E+00	 1.619E+01	-5.761E+00	-5.670E+00	-4.987E+02	-4.805E+01	 8.627E+00	-1.951E+01	 2.640E+02	 7.730E+01	 2.614E+02	-2.634E+01	 5.681E+01	-2.848E+01	 5.152E+01	-3.076E+01
  13.000	 2.371E+01	-4.844E+01	-2.081E-02	-8.501E-02	 2.349E-01	 3.233E+00	 1.297E+00	 2.008E+00	 1.618E+01	-5.489E+00	-5.456E+00	-4.800E+02	-4.844E+01	 5.774E+00	-1.522E+01	 2.165E+02	 4.282E+01	 2.557E+02	-5.646E+01	 5.784E+01	-2.825E+01	 5.238E+01	-3.073E+01
  13.050	 2.380E+01	-4.882E+01	-4.032E-02	-5.996E-02	-6.682E-01	 3.285E+00	 1.083E+00	 2.015E+00	 1.616E+01	-5.183E+00	-5.539E+00	-4.872E+02	-4.882E+01	 2.880E+00	-1.076E+01	 1.659E+02	 9.047E+00	 2.468E+02	-8.610E+01	 5.852E+01	-2.804E+01	 5.417E+01	-3.021E+01
  13.100	 2.390E+01	-4.921E+01	-5.685E-02	-3.483E-02	-1.025E+00	 3.095E+00	 1.080E+00	 2.076E+00	 1.614E+01	-5.664E+00	-5.473E+00	-4.815E+02	-4.921E+01	 3.962E-01	-6.413E+00	 1.148E+02	-2.002E+01	 2.339E+02	-1.140E+02	 5.924E+01	-2.763E+01	 5.616E+01	-2.937E+01
  13.150	 2.399E+01	-4.958E+01	-7.089E-02	-1.006E-02	-2.595E-01	 2.944E+00	 1.146E+00	 2.097E+00	 1.611E+01	-5.778E+00	-5.696E+00	-5.010E+02	-4.958E+01	-1.717E+00	-1.963E+00	 6.225E+01	-4.317E+01	 2.187E+02	-1.407E+02	 6.053E+01	-2.715E+01	 5.777E+01	-2.826E+01
  13.200	 2.408E+01	-4.996E+01	-8.133E-02	 1.349E-02	-4.322E-02	 2.892E+00	 1.320E+00	 2.098E+00	 1.610E+01	-5.746E+00	-5.669E+00	-4.987E+02	-4.996E+01	-2.826E+00	 2.441E+00	 9.837E+00	-5.663E+01	 2.005E+02	-1.650E+02	 6.250E+01	-2.644E+01	 5.904E+01	-2.703E+01
  13.250	 2.417E+01	-5.032E+01	-8.665E-02	 3.507E-02	 5.562E-01	 3.024E+00	 1.298E+00	 2.015E+00	 1.606E+01	-5.096E+00	-5.479E+00	-4.820E+02	-5.032E+01	-3.511E+00	 6.888E+00	-4.293E+01	-6.392E+01	 1.791E+02	-1.874E+02	 6.465E+01	-2.565E+01	 6.071E+01	-2.573E+01
  13.300	 2.426E+01	-5.068E+01	-8.573E-02	 5.467E-02	 6.352E-01	 2.925E+00	 1.263E+00	 1.957E+00	 1.604E+01	-5.098E+00	-5.326E+00	-4.685E+02	-5.068E+01	-3.582E+00	 1.107E+01	-9.431E+01	-6.369E+01	 1.556E+02	-2.073E+02	 6.698E+01	-2.490E+01	 6.296E+01	-2.414E+01
  13.350	 2.435E+01	-5.104E+01	-7.833E-02	 7.174E-02	 1.326E+00	 2.757E+00	 1.172E+00	 1.910E+00	 1.601E+01	-5.417E+00	-5.335E+00	-4.693E+02	-5.104E+01	-3.151E+00	 1.496E+01	-1.433E+02	-5.556E+01	 1.303E+02	-2.245E+02	 6.927E+01	-2.423E+01	 6.620E+01	-2.238E+01
  13.400	 2.443E+01	-5.139E+01	-6.361E-02	 8.536E-02	 1.882E+00	 2.711E+00	 1.290E+00	 1.814E+00	 1.599E+01	-5.377E+00	-4.852E+00	-4.269E+02	-5.139E+01	-1.859E+00	 1.868E+01	-1.901E+02	-3.631E+01	 1.031E+02	-2.388E+02	 7.148E+01	-2.340E+01	 7.037E+01	-2.094E+01
  13.450	 2.452E+01	-5.174E+01	-3.996E-02	 9.492E-02	 2.822E+00	 2.807E+00	 1.411E+00	 1.691E+00	 1.596E+01	-4.950E+00	-5.105E+00	-4.490E+02	-5.174E+01	 1.900E-01	 2.220E+01	-2.345E+02	-6.275E+00	 7.466E+01	-2.499E+02	 7.381E+01	-2.279E+01	 7.471E+01	-1.954E+01
  13.500	 2.460E+01	-5.208E+01	-5.901E-03	 9.980E-02	 3.375E+00	 2.749E+00	 1.541E+00	 1.665E+00	 1.593E+01	-5.197E+00	-5.182E+00	-4.558E+02	-5.208E+01	 2.774E+00	 2.519E+01	-2.737E+02	 3.311E+01	 4.605E+01	-2.578E+02	 7.633E+01	-2.209E+01	 7.863E+01	-1.846E+01
  13.550	 2.468E+01	-5.241E+01	 3.923E-02	 9.933E-02	 4.062E+00	 2.630E+00	 1.433E+00	 1.652E+00	 1.590E+01	-5.236E+00	-5.276E+00	-4.641E+02	-5.241E+01	 5.535E+00	 2.788E+01	-3.090E+02	 7.920E+01	 1.667E+01	-2.624E+02	 7.853E+01	-2.144E+01	 8.216E+01	-1.773E+01
  13.600	 2.477E+01	-5.275E+01	 9.522E-02	 9.308E-02	 3.930E+00	 2.592E+00	 1.426E+00	 1.677E+00	 1.587E+01	-5.499E+00	-5.326E+00	-4.685E+02	-5.275E+01	 8.754E+00	 3.001E+01	-3.376E+02	 1.335E+02	-1.264E+01	-2.633E+02	 8.033E+01	-2.084E+01	 8.504E+01	-1.726E+01
  13.650	 2.485E+01	-5.307E+01	 1.606E-01	 8.105E-02	 3.452E+00	 3.005E+00	 1.358E+00	 1.693E+00	 1.583E+01	-5.423E+00	-5.456E+00	-4.799E+02	-5.307E+01	 1.219E+01	 3.161E+01	-3.589E+02	 1.941E+02	-4.150E+01	-2.608E+02	 8.159E+01	-2.028E+01	 8.725E+01	-1.706E+01
  13.700	 2.493E+01	-5.339E+01	 2.337E-01	 6.407E-02	 5.370E+00	 3.151E+00	 1.511E+00	 1.703E+00	 1.578E+01	-5.463E+00	-5.518E+00	-4.854E+02	-5.339E+01	 1.607E+01	 3.271E+01	-3.743E+02	 2.622E+02	-6.991E+01	-2.546E+02	 8.231E+01	-1.977E+01	 8.869E+01	-1.711E+01
  13.750	 2.500E+01	-5.370E+01	 3.152E-01	 4.201E-02	 4.423E+00	 3.567E+00	 1.349E+00	 1.719E+00	 1.574E+01	-5.555E+00	-5.718E+00	-5.030E+02	-5.370E+01	 1.960E+01	 3.319E+01	-3.821E+02	 3.298E+02	-9.736E+01	-2.450E+02	 8.233E+01	-1.937E+01	 8.921E+01	-1.721E+01
  13.800	 2.508E+01	-5.402E+01	 4.019E-01	 1.618E-02	 5.756E+00	 3.637E+00	 1.137E+00	 1.742E+00	 1.569E+01	-5.920E+00	-5.677E+00	-4.994E+02	-5.402E+01	 2.346E+01	 3.310E+01	-3.835E+02	 4.021E+02	-1.235E+02	-2.323E+02	 8.196E+01	-1.901E+01	 8.858E+01	-1.730E+01
  13.850	 2.515E+01	-5.432E+01	 4.941E-01	-1.363E-02	 5.086E+00	 3.744E+00	 1.075E+00	 1.731E+00	 1.565E+01	-6.019E+00	-5.937E+00	-5.223E+02	-5.432E+01	 2.687E+01	 3.260E+01	-3.794E+02	 4.709E+02	-1.481E+02	-2.167E+02	 8.125E+01	-1.884E+01	 8.678E+01	-1.724E+01
  13.900	 2.523E+01	-5.461E+01	 5.882E-01	-4.663E-02	 4.166E+00	 3.836E+00	 9.671E-01	 1.753E+00	 1.559E+01	-6.151E+00	-6.664E+00	-5.862E+02	-5.461E+01	 3.005E+01	 3.151E+01	-3.676E+02	 5.371E+02	-1.702E+02	-1.982E+02	 7.996E+01	-1.885E+01	 8.417E+01	-1.700E+01
  13.950	 2.530E+01	-5.490E+01	 6.795E-01	-8.207E-02	 4.685E+00	 4.121E+00	 9.499E-01	 1.747E+00	 1.551E+01	-5.871E+00	-6.066E+00	-5.336E+02	-5.490E+01	 3.312E+01	 2.993E+01	-3.479E+02	 6.017E+02	-1.909E+02	-1.775E+02	 7.809E+01	-1.846E+01	 8.130E+01	-1.723E+01
  14.000	 2.537E+01	-5.519E+01	 7.651E-01	-1.186E-01	 4.251E+00	 4.271E+00	 7.439E-01	 1.735E+00	 1.545E+01	-5.710E+00	-5.464E+00	-4.806E+02	-5.519E+01	 3.620E+01	 2.749E+01	-3.212E+02	 6.628E+02	-2.091E+02	-1.542E+02	 7.576E+01	-1.817E+01	 7.821E+01	-1.732E+01
  14.050	 2.544E+01	-5.547E+01	 8.424E-01	-1.547E-01	 3.832E+00	 4.325E+00	 8.505E-01	 1.690E+00	 1.542E+01	-5.505E+00	-5.521E+00	-4.856E+02	-5.547E+01	 3.874E+01	 2.489E+01	-2.897E+02	 7.150E+02	-2.247E+02	-1.294E+02	 7.380E+01	-1.825E+01	 7.456E+01	-1.686E+01
  14.100	 2.550E+01	-5.574E+01	 9.088E-01	-1.888E-01	 3.428E+00	 4.309E+00	 8.516E-01	 1.625E+00	 1.536E+01	-5.309E+00	-5.324E+00	-4.683E+02	-5.574E+01	 4.149E+01	 2.112E+01	-2.507E+02	 7.589E+02	-2.378E+02	-1.025E+02	 7.169E+01	-1.838E+01	 7.116E+01	-1.637E+01
  14.150	 2.557E+01	-5.600E+01	 9.612E-01	-2.203E-01	 3.861E+00	 4.146E+00	 8.420E-01	 1.597E+00	 1.529E+01	-5.542E+00	-5.333E+00	-4.691E+02	-5.600E+01	 4.316E+01	 1.694E+01	-2.060E+02	 7.904E+02	-2.480E+02	-7.439E+01	 6.981E+01	-1.863E+01	 6.774E+01	-1.585E+01
  14.200	 2.563E+01	-5.627E+01	 9.978E-01	-2.490E-01	 3.649E+00	 4.127E+00	 6.087E-01	 1.549E+00	 1.522E+01	-5.511E+00	-5.396E+00	-4.746E+02	-5.627E+01	 4.479E+01	 1.219E+01	-1.559E+02	 8.132E+02	-2.548E+02	-4.516E+01	 6.793E+01	-1.892E+01	 6.494E+01	-1.557E+01
  14.250	 2.569E+01	-5.652E+01	 1.018E+00	-2.749E-01	 4.488E+00	 4.292E+00	 8.107E-01	 1.439E+00	 1.519E+01	-4.641E+00	-4.959E+00	-4.363E+02	-5.652E+01	 4.652E+01	 6.706E+00	-1.000E+02	 8.286E+02	-2.585E+02	-1.518E+01	 6.654E+01	-1.917E+01	 6.276E+01	-1.564E+01
  14.300	 2.576E+01	-5.677E+01	 1.023E+00	-2.960E-01	 5.339E+00	 4.212E+00	 8.925E-01	 1.387E+00	 1.513E+01	-4.427E+00	-4.897E+00	-4.308E+02	-5.677E+01	 4.752E+01	 1.244E+00	-4.311E+01	 8.329E+02	-2.592E+02	 1.479E+01	 6.532E+01	-1.975E+01	 6.125E+01	-1.560E+01
  14.350	 2.581E+01	-5.701E+01	 1.016E+00	-3.129E-01	 6.359E+00	 3.952E+00	 1.001E+00	 1.395E+00	 1.508E+01	-4.734E+00	-4.695E+00	-4.130E+02	-5.701E+01	 4.810E+01	-4.177E+00	 1.450E+01	 8.285E+02	-2.569E+02	 4.438E+01	 6.425E+01	-2.047E+01	 6.047E+01	-1.571E+01
  14.400	 2.587E+01	-5.724E+01	 9.974E-01	-3.263E-01	 7.255E+00	 3.844E+00	 5.690E-01	 1.434E+00	 1.501E+01	-5.158E+00	-4.999E+00	-4.397E+02	-5.724E+01	 4.795E+01	-9.008E+00	 6.965E+01	 8.153E+02	-2.515E+02	 7.306E+01	 6.305E+01	-2.138E+01	 6.031E+01	-1.615E+01
  14.450	 2.593E+01	-5.747E+01	 9.701E-01	-3.376E-01	 7.861E+00	 3.945E+00	 7.381E-01	 1.354E+00	 1.498E+01	-4.210E+00	-4.558E+00	-4.009E+02	-5.747E+01	 4.856E+01	-1.422E+01	 1.277E+02	 8.047E+02	-2.428E+02	 1.013E+02	 6.189E+01	-2.210E+01	 6.048E+01	-1.741E+01
  14.500	 2.598E+01	-5.769E+01	 9.370E-01	-3.453E-01	 8.615E+00	 3.799E+00	 7.769E-01	 1.379E+00	 1.492E+01	-4.445E+00	-4.346E+00	-3.823E+02	-5.769E+01	 4.830E+01	-1.877E+01	 1.810E+02	 7.877E+02	-2.310E+02	 1.277E+02	 6.087E+01	-2.291E+01	 6.007E+01	-1.899E+01
  14.550	 2.603E+01	-5.790E+01	 9.010E-01	-3.511E-01	 9.244E+00	 3.725E+00	 9.128E-01	 1.392E+00	 1.486E+01	-4.526E+00	-4.641E+00	-4.082E+02	-5.790E+01	 4.765E+01	-2.278E+01	 2.301E+02	 7.679E+02	-2.166E+02	 1.524E+02	 6.003E+01	-2.391E+01	 5.891E+01	-2.075E+01
  14.600	 2.609E+01	-5.811E+01	 8.645E-01	-3.557E-01	 9.368E+00	 3.808E+00	 1.396E-01	 1.441E+00	 1.478E+01	-4.885E+00	-4.916E+00	-4.324E+02	-5.811E+01	 4.736E+01	-2.670E+01	 2.766E+02	 7.495E+02	-1.990E+02	 1.754E+02	 5.855E+01	-2.497E+01	 5.752E+01	-2.276E+01
  14.650	 2.613E+01	-5.831E+01	 8.284E-01	-3.603E-01	 8.928E+00	 3.904E+00	 1.860E-01	 1.481E+00	 1.475E+01	-4.880E+00	-4.827E+00	-4.246E+02	-5.831E+01	 4.643E+01	-2.973E+01	 3.179E+02	 7.300E+02	-1.794E+02	 1.956E+02	 5.734E+01	-2.593E+01	 5.561E+01	-2.480E+01
  14.700	 2.618E+01	-5.851E+01	 7.936E-01	-3.632E-01	 8.531E+00	 3.973E+00	 1.920E-01	 1.525E+00	 1.467E+01	-4.861E+00	-5.055E+00	-4.447E+02	-5.851E+01	 4.573E+01	-3.251E+01	 3.556E+02	 7.142E+02	-1.576E+02	 2.137E+02	 5.563E+01	-2.705E+01	 5.364E+01	-2.663E+01
  14.750	 2.623E+01	-5.869E+01	 7.601E-01	-3.655E-01	 8.656E+00	 3.960E+00	 6.947E-01	 1.612E+00	 1.458E+01	-5.310E+00	-5.386E+00	-4.738E+02	-5.869E+01	 4.483E+01	-3.449E+01	 3.867E+02	 6.988E+02	-1.340E+02	 2.287E+02	 5.374E+01	-2.814E+01	 5.130E+01	-2.828E+01
  14.800	 2.627E+01	-5.887E+01	 7.283E-01	-3.674E-01	 8.028E+00	 4.104E+00	 6.852E-01	 1.663E+00	 1.450E+01	-5.382E+00	-5.241E+00	-4.611E+02	-5.887E+01	 4.417E+01	-3.650E+01	 4.166E+02	 6.865E+02	-1.084E+02	 2.410E+02	 5.168E+01	-2.894E+01	 4.853E+01	-3.010E+01
  14.850	 2.631E+01	-5.904E+01	 6.972E-01	-3.687E-01	 6.573E+00	 4.258E+00	 4.729E-01	 1.630E+00	 1.445E+01	-5.060E+00	-4.952E+00	-4.356E+02	-5.904E+01	 4.346E+01	-3.829E+01	 4.424E+02	 6.739E+02	-8.164E+01	 2.504E+02	 5.032E+01	-2.955E+01	 4.507E+01	-3.177E+01
  14.900	 2.636E+01	-5.921E+01	 6.665E-01	-3.674E-01	 5.782E+00	 4.237E+00	 1.845E-01	 1.542E+00	 1.436E+01	-4.482E+00	-4.788E+00	-4.212E+02	-5.921E+01	 4.323E+01	-4.006E+01	 4.643E+02	 6.634E+02	-5.380E+01	 2.571E+02	 4.943E+01	-3.015E+01	 4.177E+01	-3.291E+01
  14.950	 2.640E+01	-5.937E+01	 6.352E-01	-3.635E-01	 5.484E+00	 3.759E+00	 4.881E-01	 1.547E+00	 1.426E+01	-5.097E+00	-4.909E+00	-4.318E+02	-5.937E+01	 4.225E+01	-4.119E+01	 4.804E+02	 6.483E+02	-2.561E+01	 2.605E+02	 4.876E+01	-3.078E+01	 3.939E+01	-3.334E+01
  15.000	 2.643E+01	-5.952E+01	 6.028E-01	-3.582E-01	 5.721E+00	 3.375E+00	 4.130E-01	 1.508E+00	 1.417E+01	-5.322E+00	-5.327E+00	-4.686E+02	-5.952E+01	 4.197E+01	-4.242E+01	 4.950E+02	 6.358E+02	 3.093E+00	 2.618E+02	 4.778E+01	-3.139E+01	 3.856E+01	-3.336E+01
  15.050	 2.647E+01	-5.966E+01	 5.694E-01	-3.522E-01	 5.120E+00	 3.288E+00	 2.337E-01	 1.406E+00	 1.408E+01	-4.824E+00	-5.042E+00	-4.435E+02	-5.966E+01	 4.109E+01	-4.309E+01	 5.057E+02	 6.197E+02	 3.235E+01	 2.585E+02	 4.699E+01	-3.165E+01	 3.895E+01	-3.334E+01
  15.100	 2.650E+01	-5.981E+01	 5.357E-01	-3.459E-01	 4.758E+00	 3.271E+00	 6.034E-01	 1.358E+00	 1.403E+01	-4.578E+00	-4.347E+00	-3.824E+02	-5.981E+01	 4.102E+01	-4.389E+01	 5.152E+02	 6.038E+02	 6.063E+01	 2.537E+02	 4.783E+01	-3.157E+01	 3.917E+01	-3.315E+01
  15.150	 2.653E+01	-5.993E+01	 5.031E-01	-3.380E-01	 4.719E+00	 3.292E+00	 8.724E-01	 1.294E+00	 1.394E+01	-4.081E+00	-3.940E+00	-3.466E+02	-5.993E+01	 4.033E+01	-4.385E+01	 5.189E+02	 5.848E+02	 8.832E+01	 2.449E+02	 4.930E+01	-3.153E+01	 4.002E+01	-3.261E+01
  15.200	 2.656E+01	-6.006E+01	 4.723E-01	-3.283E-01	 5.599E+00	 3.158E+00	 9.836E-01	 1.265E+00	 1.385E+01	-3.735E+00	-4.315E+00	-3.796E+02	-6.006E+01	 3.956E+01	-4.368E+01	 5.172E+02	 5.643E+02	 1.149E+02	 2.338E+02	 5.170E+01	-3.169E+01	 4.146E+01	-3.156E+01
  15.250	 2.659E+01	-6.017E+01	 4.447E-01	-3.173E-01	 5.459E+00	 2.691E+00	 8.897E-02	 1.303E+00	 1.377E+01	-4.138E+00	-3.788E+00	-3.332E+02	-6.017E+01	 3.855E+01	-4.323E+01	 5.110E+02	 5.421E+02	 1.398E+02	 2.200E+02	 5.450E+01	-3.153E+01	 4.440E+01	-3.066E+01
  15.300	 2.662E+01	-6.028E+01	 4.213E-01	-3.062E-01	 5.159E+00	 2.476E+00	 5.330E-01	 1.255E+00	 1.373E+01	-3.973E+00	-3.462E+00	-3.046E+02	-6.028E+01	 3.719E+01	-4.226E+01	 4.994E+02	 5.176E+02	 1.634E+02	 2.037E+02	 5.700E+01	-3.123E+01	 4.935E+01	-3.010E+01
  15.350	 2.664E+01	-6.038E+01	 4.030E-01	-2.951E-01	 4.791E+00	 2.337E+00	 1.314E+00	 1.229E+00	 1.364E+01	-3.943E+00	-4.191E+00	-3.687E+02	-6.038E+01	 3.513E+01	-4.092E+01	 4.846E+02	 4.894E+02	 1.849E+02	 1.856E+02	 5.956E+01	-3.103E+01	 5.495E+01	-2.958E+01
  15.400	 2.667E+01	-6.048E+01	 3.896E-01	-2.848E-01	 5.489E+00	 2.438E+00	 1.755E+00	 1.234E+00	 1.355E+01	-3.773E+00	-3.924E+00	-3.452E+02	-6.048E+01	 3.284E+01	-3.922E+01	 4.672E+02	 4.613E+02	 2.041E+02	 1.654E+02	 6.268E+01	-3.043E+01	 6.015E+01	-2.945E+01
  15.450	 2.669E+01	-6.056E+01	 3.811E-01	-2.748E-01	 5.302E+00	 2.381E+00	 1.103E+00	 1.229E+00	 1.346E+01	-3.764E+00	-3.415E+00	-3.004E+02	-6.056E+01	 3.008E+01	-3.722E+01	 4.463E+02	 4.335E+02	 2.206E+02	 1.435E+02	 6.647E+01	-2.983E+01	 6.439E+01	-2.915E+01
  15.500	 2.671E+01	-6.064E+01	 3.774E-01	-2.645E-01	 4.495E+00	 2.445E+00	 9.888E-01	 1.192E+00	 1.342E+01	-3.442E+00	-3.292E+00	-2.896E+02	-6.064E+01	 2.815E+01	-3.479E+01	 4.201E+02	 4.131E+02	 2.345E+02	 1.203E+02	 7.061E+01	-2.942E+01	 6.816E+01	-2.847E+01
  15.550	 2.672E+01	-6.071E+01	 3.786E-01	-2.535E-01	 4.271E+00	 2.321E+00	 1.051E+00	 1.209E+00	 1.334E+01	-3.632E+00	-3.704E+00	-3.258E+02	-6.071E+01	 2.603E+01	-3.216E+01	 3.908E+02	 3.951E+02	 2.458E+02	 9.606E+01	 7.408E+01	-2.908E+01	 7.222E+01	-2.768E+01
  15.600	 2.674E+01	-6.078E+01	 3.842E-01	-2.426E-01	 4.254E+00	 2.341E+00	 1.519E+00	 1.253E+00	 1.325E+01	-3.832E+00	-3.818E+00	-3.359E+02	-6.078E+01	 2.392E+01	-2.920E+01	 3.590E+02	 3.803E+02	 2.543E+02	 7.076E+01	 7.687E+01	-2.840E+01	 7.652E+01	-2.739E+01
  15.650	 2.675E+01	-6.083E+01	 3.938E-01	-2.322E-01	 5.203E+00	 2.281E+00	 1.178E+00	 1.322E+00	 1.314E+01	-4.101E+00	-3.692E+00	-3.248E+02	-6.083E+01	 2.106E+01	-2.592E+01	 3.248E+02	 3.630E+02	 2.598E+02	 4.457E+01	 7.902E+01	-2.741E+01	 8.051E+01	-2.751E+01
  15.700	 2.677E+01	-6.088E+01	 4.070E-01	-2.223E-01	 4.045E+00	 2.656E+00	 1.426E+00	 1.308E+00	 1.310E+01	-3.466E+00	-3.506E+00	-3.084E+02	-6.088E+01	 2.007E+01	-2.241E+01	 2.870E+02	 3.585E+02	 2.624E+02	 1.841E+01	 8.187E+01	-2.627E+01	 8.307E+01	-2.751E+01
  15.750	 2.678E+01	-6.092E+01	 4.234E-01	-2.111E-01	 3.969E+00	 2.789E+00	 1.357E+00	 1.313E+00	 1.300E+01	-3.208E+00	-3.401E+00	-2.991E+02	-6.092E+01	 1.910E+01	-1.872E+01	 2.458E+02	 3.560E+02	 2.621E+02	-8.140E+00	 8.474E+01	-2.528E+01	 8.458E+01	-2.690E+01
  15.800	 2.678E+01	-6.096E+01	 4.420E-01	-1.985E-01	 3.827E+00	 2.734E+00	 1.473E+00	 1.322E+00	 1.291E+01	-3.253E+00	-3.774E+00	-3.320E+02	-6.096E+01	 1.869E+01	-1.493E+01	 2.014E+02	 3.586E+02	 2.587E+02	-3.438E+01	 8.769E+01	-2.457E+01	 8.555E+01	-2.543E+01
  15.850	 2.679E+01	-6.098E+01	 4.617E-01	-1.848E-01	 5.214E+00	 2.293E+00	 1.051E+00	 1.351E+00	 1.281E+01	-3.671E+00	-3.248E+00	-2.857E+02	-6.098E+01	 1.720E+01	-1.107E+01	 1.553E+02	 3.565E+02	 2.531E+02	-6.086E+01	 8.971E+01	-2.358E+01	 8.734E+01	-2.394E+01
  15.900	 2.680E+01	-6.100E+01	 4.823E-01	-1.713E-01	 4.488E+00	 2.320E+00	 1.278E+00	 1.257E+00	 1.276E+01	-3.079E+00	-3.023E+00	-2.659E+02	-6.100E+01	 1.725E+01	-6.957E+00	 1.059E+02	 3.645E+02	 2.448E+02	-8.644E+01	 9.196E+01	-2.249E+01	 8.956E+01	-2.239E+01
  15.950	 2.680E+01	-6.101E+01	 5.043E-01	-1.570E-01	 4.852E+00	 2.295E+00	 1.318E+00	 1.168E+00	 1.267E+01	-2.653E+00	-3.135E+00	-2.758E+02	-6.101E+01	 1.732E+01	-2.800E+00	 5.554E+01	 3.736E+02	 2.342E+02	-1.111E+02	 9.398E+01	-2.134E+01	 9.235E+01	-2.088E+01
  16.000	 2.680E+01	-6.102E+01	 5.273E-01	-1.428E-01	 5.190E+00	 2.242E+00	 1.446E+00	 1.068E+00	 1.258E+01	-2.457E+00	-2.312E+00	-2.034E+02	-6.102E+01	 1.774E+01	 1.351E+00	 4.802E+00	 3.864E+02	 2.210E+02	-1.348E+02	 9.608E+01	-1.982E+01	 9.532E+01	-1.964E+01
  16.050	 2.680E+01	-6.102E+01	 5.519E-01	-1.286E-01	 6.599E+00	 1.999E+00	 1.395E+00	 9.650E-01	 1.250E+01	-2.311E+00	-2.536E+00	-2.231E+02	-6.102E+01	 1.791E+01	 5.518E+00	-4.662E+01	 3.996E+02	 2.053E+02	-1.570E+02	 9.842E+01	-1.872E+01	 9.777E+01	-1.785E+01
  16.100	 2.680E+01	-6.102E+01	 5.784E-01	-1.149E-01	 7.349E+00	 1.680E+00	 1.432E+00	 8.421E-01	 1.242E+01	-2.117E+00	-2.032E+00	-1.787E+02	-6.102E+01	 1.841E+01	 9.605E+00	-9.758E+01	 4.171E+02	 1.870E+02	-1.777E+02	 1.010E+02	-1.757E+01	 1.002E+02	-1.597E+01
  16.150	 2.680E+01	-6.102E+01	 6.074E-01	-1.027E-01	 7.188E+00	 1.489E+00	 1.617E+00	 7.112E-01	 1.238E+01	-1.896E+00	-1.856E+00	-1.633E+02	-6.102E+01	 2.032E+01	 1.351E+01	-1.472E+02	 4.447E+02	 1.668E+02	-1.960E+02	 1.042E+02	-1.668E+01	 1.024E+02	-1.377E+01
  16.200	 2.680E+01	-6.102E+01	 6.398E-01	-9.190E-02	 7.885E+00	 1.392E+00	 1.749E+00	 5.760E-01	 1.231E+01	-1.517E+00	-1.699E+00	-1.494E+02	-6.102E+01	 2.223E+01	 1.726E+01	-1.945E+02	 4.749E+02	 1.449E+02	-2.125E+02	 1.072E+02	-1.591E+01	 1.052E+02	-1.174E+01
  16.250	 2.680E+01	-6.102E+01	 6.763E-01	-8.342E-02	 9.169E+00	 1.336E+00	 1.927E+00	 4.407E-01	 1.225E+01	-1.288E+00	-8.226E-01	-7.236E+01	-6.102E+01	 2.428E+01	 2.072E+01	-2.384E+02	 5.085E+02	 1.213E+02	-2.268E+02	 1.098E+02	-1.496E+01	 1.090E+02	-1.040E+01
  16.300	 2.680E+01	-6.102E+01	 7.175E-01	-7.760E-02	 9.030E+00	 1.176E+00	 1.983E+00	 3.457E-01	 1.222E+01	-1.115E+00	-8.410E-01	-7.397E+01	-6.102E+01	 2.664E+01	 2.397E+01	-2.798E+02	 5.469E+02	 9.696E+01	-2.389E+02	 1.124E+02	-1.436E+01	 1.129E+02	-9.272E+00
  16.350	 2.680E+01	-6.102E+01	 7.639E-01	-7.392E-02	 9.606E+00	 1.096E+00	 2.115E+00	 2.382E-01	 1.216E+01	-8.342E-01	-9.954E-01	-8.756E+01	-6.102E+01	 2.940E+01	 2.693E+01	-3.179E+02	 5.903E+02	 7.157E+01	-2.485E+02	 1.148E+02	-1.396E+01	 1.166E+02	-8.510E+00
  16.400	 2.680E+01	-6.102E+01	 8.157E-01	-7.327E-02	 1.011E+01	 9.833E-01	 2.269E+00	 1.762E-01	 1.211E+01	-8.499E-01	-9.921E-01	-8.727E+01	-6.102E+01	 3.226E+01	 2.947E+01	-3.508E+02	 6.371E+02	 4.568E+01	-2.554E+02	 1.171E+02	-1.370E+01	 1.196E+02	-8.137E+00
  16.450	 2.680E+01	-6.102E+01	 8.726E-01	-7.617E-02	 1.098E+01	 9.178E-01	 2.181E+00	 1.667E-01	 1.206E+01	-8.619E-01	-9.700E-01	-8.533E+01	-6.102E+01	 3.494E+01	 3.161E+01	-3.781E+02	 6.848E+02	 1.941E+01	-2.595E+02	 1.190E+02	-1.361E+01	 1.219E+02	-8.170E+00
  16.500	 2.680E+01	-6.102E+01	 9.341E-01	-8.322E-02	 1.049E+01	 9.493E-01	 2.084E+00	 1.745E-01	 1.203E+01	-8.115E-01	-7.454E-01	-6.557E+01	-6.102E+01	 3.776E+01	 3.332E+01	-3.992E+02	 7.351E+02	-6.771E+00	-2.609E+02	 1.206E+02	-1.357E+01	 1.234E+02	-8.638E+00
  16.550	 2.680E+01	-6.102E+01	 9.989E-01	-9.324E-02	 1.037E+01	 1.078E+00	 2.022E+00	 1.832E-01	 1.198E+01	-7.050E-01	-7.504E-01	-6.601E+01	-6.102E+01	 4.050E+01	 3.456E+01	-4.138E+02	 7.858E+02	-3.278E+01	-2.593E+02	 1.217E+02	-1.371E+01	 1.243E+02	-9.439E+00
  16.600	 2.680E+01	-6.102E+01	 1.065E+00	-1.061E-01	 1.016E+01	 1.218E+00	 2.103E+00	 1.606E-01	 1.193E+01	-6.002E-01	-6.961E-01	-6.124E+01	-6.102E+01	 4.307E+01	 3.535E+01	-4.222E+02	 8.354E+02	-5.855E+01	-2.548E+02	 1.222E+02	-1.394E+01	 1.247E+02	-1.056E+01
  16.650	 2.680E+01	-6.102E+01	 1.130E+00	-1.211E-01	 1.026E+01	 1.136E+00	 1.909E+00	 2.090E-01	 1.187E+01	-1.080E+00	-8.046E-01	-7.078E+01	-6.102E+01	 4.538E+01	 3.553E+01	-4.233E+02	 8.823E+02	-8.386E+01	-2.470E+02	 1.219E+02	-1.437E+01	 1.247E+02	-1.178E+01
  16.700	 2.680E+01	-6.102E+01	 1.192E+00	-1.387E-01	 9.759E+00	 1.337E+00	 1.876E+00	 1.770E-01	 1.185E+01	-8.587E-01	-9.027E-01	-7.941E+01	-6.102E+01	 4.740E+01	 3.538E+01	-4.186E+02	 9.251E+02	-1.082E+02	-2.367E+02	 1.216E+02	-1.489E+01	 1.236E+02	-1.303E+01
  16.750	 2.680E+01	-6.102E+01	 1.249E+00	-1.571E-01	 9.292E+00	 1.522E+00	 1.821E+00	 1.653E-01	 1.179E+01	-7.384E-01	-8.347E-01	-7.343E+01	-6.102E+01	 4.894E+01	 3.472E+01	-4.070E+02	 9.608E+02	-1.315E+02	-2.237E+02	 1.210E+02	-1.550E+01	 1.218E+02	-1.422E+01
  16.800	 2.680E+01	-6.102E+01	 1.298E+00	-1.759E-01	 9.191E+00	 1.551E+00	 1.621E+00	 2.225E-01	 1.173E+01	-9.078E-01	-1.009E+00	-8.874E+01	-6.102E+01	 5.008E+01	 3.353E+01	-3.888E+02	 9.888E+02	-1.533E+02	-2.081E+02	 1.202E+02	-1.631E+01	 1.195E+02	-1.513E+01
  16.850	 2.680E+01	-6.102E+01	 1.337E+00	-1.943E-01	 8.703E+00	 1.660E+00	 1.598E+00	 2.245E-01	 1.168E+01	-7.195E-01	-7.556E-01	-6.646E+01	-6.102E+01	 5.079E+01	 3.203E+01	-3.659E+02	 1.008E+03	-1.740E+02	-1.905E+02	 1.190E+02	-1.705E+01	 1.173E+02	-1.608E+01
  16.900	 2.680E+01	-6.102E+01	 1.364E+00	-2.122E-01	 8.410E+00	 1.696E+00	 1.707E+00	 2.029E-01	 1.165E+01	-4.452E-01	-4.423E-01	-3.891E+01	-6.102E+01	 5.109E+01	 2.989E+01	-3.384E+02	 1.018E+03	-1.926E+02	-1.708E+02	 1.178E+02	-1.776E+01	 1.152E+02	-1.696E+01
  16.950	 2.680E+01	-6.102E+01	 1.378E+00	-2.278E-01	 8.258E+00	 1.580E+00	 1.679E+00	 1.982E-01	 1.161E+01	-4.255E-01	-7.523E-01	-6.618E+01	-6.102E+01	 5.097E+01	 2.756E+01	-3.067E+02	 1.018E+03	-2.093E+02	-1.494E+02	 1.165E+02	-1.866E+01	 1.136E+02	-1.764E+01
  17.000	 2.680E+01	-6.102E+01	 1.378E+00	-2.413E-01	 8.800E+00	 1.453E+00	 1.704E+00	 1.677E-01	 1.156E+01	-3.319E-01	-1.546E-01	-1.360E+01	-6.102E+01	 5.105E+01	 2.434E+01	-2.698E+02	 1.012E+03	-2.240E+02	-1.262E+02	 1.152E+02	-1.922E+01	 1.124E+02	-1.861E+01
  17.050	 2.680E+01	-6.102E+01	 1.366E+00	-2.532E-01	 8.788E+00	 1.302E+00	 1.750E+00	 1.270E-01	 1.154E+01	-2.956E-01	-1.296E-01	-1.140E+01	-6.102E+01	 5.033E+01	 2.088E+01	-2.299E+02	 9.953E+02	-2.359E+02	-1.017E+02	 1.143E+02	-1.997E+01	 1.110E+02	-1.932E+01
  17.100	 2.680E+01	-6.102E+01	 1.340E+00	-2.623E-01	 9.363E+00	 1.290E+00	 1.886E+00	 2.181E-02	 1.149E+01	 4.010E-01	-3.261E-02	-2.868E+00	-6.102E+01	 5.025E+01	 1.657E+01	-1.858E+02	 9.758E+02	-2.454E+02	-7.550E+01	 1.138E+02	-2.075E+01	 1.099E+02	-1.994E+01
  17.150	 2.680E+01	-6.102E+01	 1.305E+00	-2.694E-01	 1.036E+01	 9.928E-01	 2.029E+00	-1.746E-02	 1.146E+01	 2.968E-01	 9.032E-02	 7.945E+00	-6.102E+01	 4.949E+01	 1.200E+01	-1.395E+02	 9.487E+02	-2.519E+02	-4.863E+01	 1.137E+02	-2.159E+01	 1.089E+02	-2.036E+01
  17.200	 2.680E+01	-6.102E+01	 1.262E+00	-2.747E-01	 1.124E+01	 7.556E-01	 2.006E+00	-5.696E-02	 1.143E+01	 2.947E-01	 3.501E-01	 3.079E+01	-6.102E+01	 4.906E+01	 7.112E+00	-9.101E+01	 9.204E+02	-2.559E+02	-2.110E+01	 1.137E+02	-2.246E+01	 1.085E+02	-2.075E+01
  17.250	 2.680E+01	-6.102E+01	 1.214E+00	-2.793E-01	 1.167E+01	 6.571E-01	 1.972E+00	-1.274E-01	 1.141E+01	 7.403E-01	 7.318E-01	 6.438E+01	-6.102E+01	 4.895E+01	 2.023E+00	-4.045E+01	 8.930E+02	-2.572E+02	 6.808E+00	 1.139E+02	-2.330E+01	 1.090E+02	-2.132E+01
  17.300	 2.680E+01	-6.102E+01	 1.164E+00	-2.829E-01	 1.232E+01	 4.233E-01	 1.976E+00	-1.290E-01	 1.139E+01	 5.619E-01	 8.795E-01	 7.736E+01	-6.102E+01	 4.813E+01	-2.616E+00	 7.824E+00	 8.618E+02	-2.561E+02	 3.419E+01	 1.144E+02	-2.414E+01	 1.097E+02	-2.197E+01
  17.350	 2.680E+01	-6.102E+01	 1.115E+00	-2.862E-01	 1.282E+01	 3.087E-01	 1.979E+00	-1.516E-01	 1.137E+01	 7.815E-01	 7.761E-01	 6.827E+01	-6.102E+01	 4.763E+01	-7.072E+00	 5.527E+01	 8.342E+02	-2.522E+02	 6.127E+01	 1.148E+02	-2.503E+01	 1.109E+02	-2.282E+01
  17.400	 2.680E+01	-6.102E+01	 1.068E+00	-2.899E-01	 1.299E+01	 2.569E-01	 1.763E+00	-1.266E-01	 1.136E+01	 6.888E-01	 6.720E-01	 5.911E+01	-6.102E+01	 4.710E+01	-1.116E+01	 1.007E+02	 8.092E+02	-2.456E+02	 8.750E+01	 1.152E+02	-2.584E+01	 1.121E+02	-2.391E+01
  17.450	 2.680E+01	-6.102E+01	 1.025E+00	-2.943E-01	 1.305E+01	 2.740E-01	 1.780E+00	-9.414E-02	 1.135E+01	 6.126E-01	 6.006E-01	 5.283E+01	-6.102E+01	 4.648E+01	-1.493E+01	 1.440E+02	 7.869E+02	-2.360E+02	 1.125E+02	 1.156E+02	-2.656E+01	 1.129E+02	-2.523E+01
  17.500	 2.680E+01	-6.102E+01	 9.875E-01	-2.996E-01	 1.298E+01	 4.210E-01	 1.959E+00	-6.255E-02	 1.133E+01	 6.482E-01	 5.369E-01	 4.723E+01	-6.102E+01	 4.570E+01	-1.805E+01	 1.839E+02	 7.670E+02	-2.241E+02	 1.360E+02	 1.159E+02	-2.715E+01	 1.132E+02	-2.668E+01
  17.550	 2.680E+01	-6.102E+01	 9.561E-01	-3.057E-01	 1.265E+01	 6.069E-01	 1.918E+00	 4.376E-04	 1.131E+01	 4.115E-01	 4.799E-01	 4.221E+01	-6.102E+01	 4.501E+01	-2.096E+01	 2.215E+02	 7.497E+02	-2.091E+02	 1.578E+02	 1.159E+02	-2.764E+01	 1.132E+02	-2.815E+01
  17.600	 2.680E+01	-6.102E+01	 9.306E-01	-3.121E-01	 1.131E+01	 7.881E-01	 1.773E+00	 2.193E-02	 1.128E+01	 4.043E-01	 5.026E-01	 4.421E+01	-6.102E+01	 4.455E+01	-2.372E+01	 2.566E+02	 7.371E+02	-1.919E+02	 1.778E+02	 1.157E+02	-2.803E+01	 1.129E+02	-2.948E+01
  17.650	 2.680E+01	-6.102E+01	 9.090E-01	-3.184E-01	 1.046E+01	 7.772E-01	 1.793E+00	 3.098E-02	 1.127E+01	 3.016E-01	 2.491E-01	 2.191E+01	-6.102E+01	 4.403E+01	-2.613E+01	 2.878E+02	 7.280E+02	-1.724E+02	 1.958E+02	 1.153E+02	-2.845E+01	 1.123E+02	-3.038E+01
  17.700	 2.680E+01	-6.102E+01	 8.901E-01	-3.239E-01	 1.007E+01	 6.714E-01	 1.834E+00	 4.118E-02	 1.124E+01	 1.146E-01	 4.773E-02	 4.199E+00	-6.102E+01	 4.362E+01	-2.846E+01	 3.171E+02	 7.237E+02	-1.510E+02	 2.118E+02	 1.147E+02	-2.876E+01	 1.114E+02	-3.093E+01
  17.750	 2.680E+01	-6.102E+01	 8.734E-01	-3.293E-01	 1.003E+01	 6.077E-01	 1.907E+00	 5.496E-02	 1.121E+01	-3.120E-03	-3.903E-02	-3.433E+00	-6.102E+01	 4.347E+01	-3.061E+01	 3.445E+02	 7.232E+02	-1.279E+02	 2.254E+02	 1.140E+02	-2.889E+01	 1.102E+02	-3.121E+01
  17.800	 2.680E+01	-6.102E+01	 8.587E-01	-3.351E-01	 9.306E+00	 5.456E-01	 1.894E+00	 1.076E-01	 1.119E+01	-5.741E-01	 1.309E-01	 1.152E+01	-6.102E+01	 4.302E+01	-3.243E+01	 3.691E+02	 7.214E+02	-1.037E+02	 2.364E+02	 1.135E+02	-2.873E+01	 1.085E+02	-3.122E+01
  17.850	 2.680E+01	-6.102E+01	 8.455E-01	-3.404E-01	 8.231E+00	 7.921E-01	 1.995E+00	 7.163E-02	 1.116E+01	 6.217E-03	-2.082E-02	-1.832E+00	-6.102E+01	 4.336E+01	-3.426E+01	 3.927E+02	 7.244E+02	-7.850E+01	 2.456E+02	 1.131E+02	-2.848E+01	 1.071E+02	-3.092E+01
  17.900	 2.680E+01	-6.102E+01	 8.324E-01	-3.449E-01	 7.784E+00	 8.347E-01	 2.153E+00	 8.636E-02	 1.112E+01	 1.114E-01	 5.026E-02	 4.421E+00	-6.102E+01	 4.360E+01	-3.595E+01	 4.140E+02	 7.272E+02	-5.243E+01	 2.519E+02	 1.128E+02	-2.798E+01	 1.063E+02	-3.034E+01
  17.950	 2.680E+01	-6.102E+01	 8.184E-01	-3.479E-01	 7.825E+00	 6.993E-01	 2.165E+00	 1.212E-01	 1.109E+01	-9.225E-02	-1.517E-01	-1.334E+01	-6.102E+01	 4.363E+01	-3.731E+01	 4.315E+02	 7.299E+02	-2.604E+01	 2.557E+02	 1.126E+02	-2.744E+01	 1.063E+02	-2.927E+01
  18.000	 2.680E+01	-6.102E+01	 8.041E-01	-3.498E-01	 7.848E+00	 6.888E-01	 2.190E+00	 9.338E-02	 1.107E+01	 2.876E-01	-2.358E-02	-2.075E+00	-6.102E+01	 4.469E+01	-3.871E+01	 4.471E+02	 7.378E+02	 9.402E-01	 2.571E+02	 1.126E+02	-2.667E+01	 1.071E+02	-2.803E+01
  18.050	 2.680E+01	-6.102E+01	 7.905E-01	-3.505E-01	 7.971E+00	 4.697E-01	 2.307E+00	 1.342E-01	 1.104E+01	-1.148E-01	 2.476E-01	 2.178E+01	-6.102E+01	 4.499E+01	-3.979E+01	 4.597E+02	 7.424E+02	 2.768E+01	 2.555E+02	 1.133E+02	-2.574E+01	 1.079E+02	-2.657E+01
  18.100	 2.680E+01	-6.102E+01	 7.787E-01	-3.503E-01	 8.130E+00	 5.603E-01	 2.507E+00	 7.526E-02	 1.100E+01	 5.246E-01	 5.305E-02	 4.666E+00	-6.102E+01	 4.608E+01	-4.055E+01	 4.678E+02	 7.490E+02	 5.447E+01	 2.513E+02	 1.145E+02	-2.486E+01	 1.092E+02	-2.488E+01
  18.150	 2.680E+01	-6.102E+01	 7.691E-01	-3.493E-01	 8.107E+00	 4.117E-01	 2.381E+00	 6.977E-02	 1.098E+01	 3.896E-01	 2.613E-01	 2.298E+01	-6.102E+01	 4.689E+01	-4.079E+01	 4.721E+02	 7.557E+02	 8.062E+01	 2.438E+02	 1.160E+02	-2.383E+01	 1.109E+02	-2.317E+01
  18.200	 2.680E+01	-6.102E+01	 7.622E-01	-3.473E-01	 8.289E+00	 2.855E-01	 2.546E+00	 3.667E-02	 1.097E+01	 4.725E-01	 5.211E-01	 4.584E+01	-6.102E+01	 4.781E+01	-4.091E+01	 4.721E+02	 7.637E+02	 1.060E+02	 2.342E+02	 1.181E+02	-2.278E+01	 1.131E+02	-2.140E+01
  18.250	 2.680E+01	-6.102E+01	 7.589E-01	-3.444E-01	 8.529E+00	 2.812E-01	 2.716E+00	-2.757E-02	 1.094E+01	 9.293E-01	 6.550E-01	 5.762E+01	-6.102E+01	 4.866E+01	-4.054E+01	 4.670E+02	 7.720E+02	 1.303E+02	 2.220E+02	 1.202E+02	-2.181E+01	 1.160E+02	-1.965E+01
  18.300	 2.680E+01	-6.102E+01	 7.596E-01	-3.409E-01	 8.560E+00	 6.265E-02	 2.699E+00	-1.924E-02	 1.093E+01	 6.186E-01	 8.009E-01	 7.045E+01	-6.102E+01	 4.933E+01	-3.999E+01	 4.589E+02	 7.792E+02	 1.531E+02	 2.080E+02	 1.225E+02	-2.084E+01	 1.191E+02	-1.800E+01
  18.350	 2.680E+01	-6.102E+01	 7.643E-01	-3.368E-01	 8.192E+00	 9.041E-03	 2.644E+00	-3.897E-02	 1.091E+01	 6.730E-01	 8.245E-01	 7.253E+01	-6.102E+01	 4.975E+01	-3.895E+01	 4.460E+02	 7.843E+02	 1.743E+02	 1.917E+02	 1.248E+02	-1.995E+01	 1.225E+02	-1.659E+01
  18.400	 2.680E+01	-6.102E+01	 7.720E-01	-3.324E-01	 8.064E+00	 4.058E-02	 2.695E+00	-5.204E-02	 1.091E+01	 7.536E-01	 7.316E-01	 6.435E+01	-6.102E+01	 4.964E+01	-3.752E+01	 4.291E+02	 7.848E+02	 1.935E+02	 1.735E+02	 1.270E+02	-1.909E+01	 1.256E+02	-1.550E+01
  18.450	 2.680E+01	-6.102E+01	 7.824E-01	-3.274E-01	 7.727E+00	 1.471E-01	 2.749E+00	-4.239E-02	 1.089E+01	 7.351E-01	 6.129E-01	 5.391E+01	-6.102E+01	 4.877E+01	-3.575E+01	 4.087E+02	 7.782E+02	 2.104E+02	 1.533E+02	 1.289E+02	-1.826E+01	 1.284E+02	-1.478E+01
  18.500	 2.680E+01	-6.102E+01	 7.943E-01	-3.216E-01	 7.267E+00	 2.933E-01	 2.767E+00	 2.425E-03	 1.088E+01	 5.510E-01	 5.324E-01	 4.683E+01	-6.102E+01	 4.747E+01	-3.362E+01	 3.849E+02	 7.674E+02	 2.247E+02	 1.316E+02	 1.304E+02	-1.743E+01	 1.305E+02	-1.438E+01
  18.550	 2.680E+01	-6.102E+01	 8.060E-01	-3.147E-01	 7.022E+00	 4.645E-01	 2.707E+00	 4.518E-02	 1.087E+01	 4.886E-01	 4.740E-01	 4.169E+01	-6.102E+01	 4.571E+01	-3.116E+01	 3.575E+02	 7.540E+02	 2.365E+02	 1.085E+02	 1.316E+02	-1.665E+01	 1.320E+02	-1.420E+01
  18.600	 2.680E+01	-6.102E+01	 8.172E-01	-3.061E-01	 7.507E+00	 6.199E-01	 2.670E+00	 8.356E-02	 1.085E+01	 5.166E-01	 5.097E-01	 4.484E+01	-6.102E+01	 4.418E+01	-2.831E+01	 3.260E+02	 7.428E+02	 2.458E+02	 8.413E+01	 1.323E+02	-1.594E+01	 1.329E+02	-1.408E+01
  18.650	 2.680E+01	-6.102E+01	 8.284E-01	-2.958E-01	 8.088E+00	 6.520E-01	 2.662E+00	 1.454E-01	 1.083E+01	 3.711E-01	 3.321E-01	 2.921E+01	-6.102E+01	 4.265E+01	-2.513E+01	 2.909E+02	 7.329E+02	 2.524E+02	 5.873E+01	 1.327E+02	-1.545E+01	 1.330E+02	-1.376E+01
  18.700	 2.680E+01	-6.102E+01	 8.405E-01	-2.842E-01	 8.738E+00	 6.217E-01	 2.555E+00	 2.057E-01	 1.080E+01	 1.525E-01	 9.681E-02	 8.516E+00	-6.102E+01	 4.084E+01	-2.159E+01	 2.521E+02	 7.223E+02	 2.562E+02	 3.247E+01	 1.326E+02	-1.511E+01	 1.326E+02	-1.332E+01
  18.750	 2.680E+01	-6.102E+01	 8.541E-01	-2.721E-01	 8.692E+00	 6.293E-01	 2.486E+00	 2.377E-01	 1.079E+01	 3.618E-02	 5.142E-02	 4.523E+00	-6.102E+01	 3.930E+01	-1.791E+01	 2.112E+02	 7.134E+02	 2.574E+02	 5.918E+00	 1.322E+02	-1.477E+01	 1.317E+02	-1.291E+01
  18.800	 2.680E+01	-6.102E+01	 8.693E-01	-2.596E-01	 9.053E+00	 7.518E-01	 2.504E+00	 2.314E-01	 1.076E+01	 2.108E-01	 1.987E-01	 1.748E+01	-6.102E+01	 3.805E+01	-1.407E+01	 1.683E+02	 7.071E+02	 2.562E+02	-2.086E+01	 1.318E+02	-1.440E+01	 1.303E+02	-1.263E+01
  18.850	 2.680E+01	-6.102E+01	 8.862E-01	-2.468E-01	 9.507E+00	 7.924E-01	 2.563E+00	 2.598E-01	 1.073E+01	 2.977E-03	 2.447E-01	 2.153E+01	-6.102E+01	 3.721E+01	-1.035E+01	 1.255E+02	 7.049E+02	 2.519E+02	-4.687E+01	 1.314E+02	-1.404E+01	 1.287E+02	-1.233E+01
  18.900	 2.680E+01	-6.102E+01	 9.054E-01	-2.340E-01	 1.039E+01	 8.370E-01	 2.390E+00	 2.457E-01	 1.070E+01	 1.437E-01	 2.314E-01	 2.035E+01	-6.102E+01	 3.607E+01	-6.308E+00	 7.950E+01	 7.031E+02	 2.452E+02	-7.290E+01	 1.307E+02	-1.379E+01	 1.277E+02	-1.205E+01
  18.950	 2.680E+01	-6.102E+01	 9.274E-01	-2.212E-01	 1.057E+01	 7.870E-01	 2.405E+00	 2.267E-01	 1.068E+01	 5.395E-02	 1.001E-01	 8.803E+00	-6.102E+01	 3.575E+01	-2.374E+00	 3.263E+01	 7.079E+02	 2.361E+02	-9.798E+01	 1.302E+02	-1.369E+01	 1.270E+02	-1.158E+01
  19.000	 2.680E+01	-6.102E+01	 9.527E-01	-2.084E-01	 1.107E+01	 8.416E-01	 2.472E+00	 1.528E-01	 1.066E+01	 3.716E-01	 1.663E-01	 1.462E+01	-6.102E+01	 3.570E+01	 1.748E+00	-1.600E+01	 7.169E+02	 2.246E+02	-1.226E+02	 1.298E+02	-1.364E+01	 1.270E+02	-1.117E+01
  19.050	 2.680E+01	-6.102E+01	 9.818E-01	-1.964E-01	 1.196E+01	 6.824E-01	 2.482E+00	 1.320E-01	 1.063E+01	 1.187E-01	 2.816E-01	 2.477E+01	-6.102E+01	 3.579E+01	 5.736E+00	-6.402E+01	 7.295E+02	 2.104E+02	-1.456E+02	 1.297E+02	-1.367E+01	 1.270E+02	-1.081E+01
  19.100	 2.680E+01	-6.102E+01	 1.015E+00	-1.857E-01	 1.224E+01	 6.507E-01	 2.544E+00	 5.666E-02	 1.062E+01	 4.075E-01	 5.067E-01	 4.457E+01	-6.102E+01	 3.638E+01	 9.767E+00	-1.124E+02	 7.482E+02	 1.939E+02	-1.675E+02	 1.301E+02	-1.376E+01	 1.272E+02	-1.064E+01
  19.150	 2.680E+01	-6.102E+01	 1.054E+00	-1.762E-01	 1.275E+01	 6.259E-01	 2.614E+00	-4.923E-02	 1.060E+01	 8.275E-01	 5.113E-01	 4.497E+01	-6.102E+01	 3.745E+01	 1.373E+01	-1.604E+02	 7.728E+02	 1.747E+02	-1.871E+02	 1.307E+02	-1.406E+01	 1.277E+02	-1.056E+01
  19.200	 2.680E+01	-6.102E+01	 1.097E+00	-1.682E-01	 1.320E+01	 4.544E-01	 2.667E+00	-1.290E-01	 1.059E+01	 8.538E-01	 7.776E-01	 6.840E+01	-6.102E+01	 3.891E+01	 1.744E+01	-2.063E+02	 8.028E+02	 1.538E+02	-2.051E+02	 1.316E+02	-1.445E+01	 1.285E+02	-1.067E+01
  19.250	 2.680E+01	-6.102E+01	 1.144E+00	-1.622E-01	 1.363E+01	 3.240E-01	 2.686E+00	-2.100E-01	 1.058E+01	 9.995E-01	 6.834E-01	 6.011E+01	-6.102E+01	 4.071E+01	 2.097E+01	-2.499E+02	 8.377E+02	 1.313E+02	-2.209E+02	 1.325E+02	-1.508E+01	 1.297E+02	-1.091E+01
  19.300	 2.680E+01	-6.102E+01	 1.195E+00	-1.586E-01	 1.383E+01	 2.211E-01	 2.774E+00	-3.050E-01	 1.058E+01	 1.122E+00	 8.758E-01	 7.704E+01	-6.102E+01	 4.285E+01	 2.423E+01	-2.902E+02	 8.771E+02	 1.072E+02	-2.343E+02	 1.335E+02	-1.578E+01	 1.313E+02	-1.151E+01
  19.350	 2.680E+01	-6.102E+01	 1.251E+00	-1.576E-01	 1.395E+01	 1.118E-01	 2.827E+00	-3.502E-01	 1.057E+01	 1.050E+00	 1.127E+00	 9.914E+01	-6.102E+01	 4.514E+01	 2.710E+01	-3.255E+02	 9.192E+02	 8.210E+01	-2.451E+02	 1.343E+02	-1.655E+01	 1.328E+02	-1.244E+01
  19.400	 2.680E+01	-6.102E+01	 1.308E+00	-1.594E-01	 1.397E+01	 1.130E-01	 2.846E+00	-3.669E-01	 1.057E+01	 1.102E+00	 1.141E+00	 1.004E+02	-6.102E+01	 4.754E+01	 2.963E+01	-3.558E+02	 9.631E+02	 5.615E+01	-2.531E+02	 1.351E+02	-1.747E+01	 1.340E+02	-1.367E+01
  19.450	 2.680E+01	-6.102E+01	 1.366E+00	-1.640E-01	 1.401E+01	 1.741E-01	 2.822E+00	-3.436E-01	 1.057E+01	 1.118E+00	 1.108E+00	 9.744E+01	-6.102E+01	 4.995E+01	 3.172E+01	-3.800E+02	 1.008E+03	 2.958E+01	-2.581E+02	 1.355E+02	-1.845E+01	 1.348E+02	-1.524E+01
  19.500	 2.680E+01	-6.102E+01	 1.424E+00	-1.712E-01	 1.407E+01	 2.410E-01	 2.749E+00	-2.660E-01	 1.057E+01	 9.564E-01	 9.314E-01	 8.193E+01	-6.102E+01	 5.230E+01	 3.330E+01	-3.974E+02	 1.052E+03	 2.835E+00	-2.599E+02	 1.354E+02	-1.951E+01	 1.350E+02	-1.703E+01
  19.550	 2.680E+01	-6.102E+01	 1.479E+00	-1.808E-01	 1.392E+01	 4.038E-01	 2.662E+00	-1.753E-01	 1.057E+01	 8.817E-01	 8.034E-01	 7.067E+01	-6.102E+01	 5.452E+01	 3.442E+01	-4.079E+02	 1.094E+03	-2.381E+01	-2.587E+02	 1.350E+02	-2.054E+01	 1.347E+02	-1.903E+01
  19.600	 2.680E+01	-6.102E+01	 1.531E+00	-1.923E-01	 1.376E+01	 6.624E-01	 2.687E+00	-1.131E-01	 1.057E+01	 8.494E-01	 8.462E-01	 7.444E+01	-6.102E+01	 5.646E+01	 3.506E+01	-4.118E+02	 1.132E+03	-5.036E+01	-2.545E+02	 1.341E+02	-2.151E+01	 1.337E+02	-2.112E+01
  19.650	 2.680E+01	-6.102E+01	 1.577E+00	-2.049E-01	 1.365E+01	 8.548E-01	 2.665E+00	-5.600E-02	 1.056E+01	 6.798E-01	 7.236E-01	 6.366E+01	-6.102E+01	 5.799E+01	 3.520E+01	-4.095E+02	 1.164E+03	-7.631E+01	-2.473E+02	 1.328E+02	-2.255E+01	 1.320E+02	-2.295E+01
  19.700	 2.680E+01	-6.102E+01	 1.616E+00	-2.181E-01	 1.322E+01	 9.833E-01	 2.531E+00	-2.493E-02	 1.056E+01	 5.275E-01	 5.218E-01	 4.590E+01	-6.102E+01	 5.904E+01	 3.491E+01	-4.014E+02	 1.188E+03	-1.016E+02	-2.372E+02	 1.313E+02	-2.365E+01	 1.297E+02	-2.446E+01
  19.750	 2.680E+01	-6.102E+01	 1.646E+00	-2.313E-01	 1.282E+01	 1.052E+00	 2.307E+00	-2.621E-03	 1.054E+01	 4.155E-01	 3.810E-01	 3.351E+01	-6.102E+01	 5.954E+01	 3.420E+01	-3.878E+02	 1.202E+03	-1.257E+02	-2.246E+02	 1.296E+02	-2.468E+01	 1.268E+02	-2.568E+01
  19.800	 2.680E+01	-6.102E+01	 1.665E+00	-2.441E-01	 1.256E+01	 9.643E-01	 2.056E+00	 7.863E-02	 1.053E+01	-1.577E-01	 4.906E-01	 4.316E+01	-6.102E+01	 5.961E+01	 3.293E+01	-3.677E+02	 1.208E+03	-1.481E+02	-2.095E+02	 1.280E+02	-2.552E+01	 1.237E+02	-2.671E+01
  19.850	 2.680E+01	-6.102E+01	 1.672E+00	-2.564E-01	 1.234E+01	 1.241E+00	 2.082E+00	 2.926E-02	 1.052E+01	 4.731E-01	 4.483E-01	 3.944E+01	-6.102E+01	 5.924E+01	 3.158E+01	-3.445E+02	 1.205E+03	-1.694E+02	-1.924E+02	 1.264E+02	-2.623E+01	 1.208E+02	-2.761E+01
  19.900	 2.680E+01	-6.102E+01	 1.665E+00	-2.671E-01	 1.231E+01	 1.317E+00	 2.089E+00	 1.134E-02	 1.050E+01	 6.375E-01	 5.150E-01	 4.530E+01	-6.102E+01	 5.855E+01	 2.946E+01	-3.164E+02	 1.194E+03	-1.887E+02	-1.731E+02	 1.249E+02	-2.673E+01	 1.187E+02	-2.834E+01
  19.950	 2.680E+01	-6.102E+01	 1.646E+00	-2.758E-01	 1.235E+01	 1.171E+00	 2.026E+00	 2.168E-02	 1.049E+01	 3.586E-01	 3.941E-01	 3.467E+01	-6.102E+01	 5.745E+01	 2.718E+01	-2.850E+02	 1.173E+03	-2.059E+02	-1.522E+02	 1.236E+02	-2.717E+01	 1.174E+02	-2.868E+01
  20.000	 2.680E+01	-6.102E+01	 1.614E+00	-2.822E-01	 1.241E+01	 1.175E+00	 1.942E+00	-3.190E-02	 1.048E+01	 7.152E-01	 2.019E-01	 1.776E+01	-6.102E+01	 5.639E+01	 2.444E+01	-2.510E+02	 1.145E+03	-2.214E+02	-1.296E+02	 1.225E+02	-2.753E+01	 1.169E+02	-2.877E+01
