
These predictions were generated by FAST (v7.00.02a-bjj, 26-Jan-2012)-Compiled as S-Function for Simulink on 26-Jan-2012 at 20:28:47.
The aerodynamic calculations were made by AeroDyn (v13.00.01a-bjj, 30-Jan-2012).

 FAST certification Test #01: AWT-27CR2 with many DOFs with fixed yaw error and steady wind.

    Time	LSSGagPxa	TeetDefl	TipDxb2	TipDyb2	TipALxb2	TipALyb2	Spn2ALxb1	Spn2ALyb1	YawBrRDxt	YawBrRDyt	YawBrRVxp	YawBrRVyp	YawBrRAxp	YawBrRAyp	RootMyc1	RootMxc1	RootFxc2	RootFyc2	Spn3MLxb1	Spn3MLyb1	RotTorq	YawBrMzn	TwrBsMzt
   (sec)	(deg)	(deg)	(m)	(m)	(m/sec^2)	(m/sec^2)	(m/sec^2)	(m/sec^2)	(deg)	(deg)	(deg/sec)	(deg/sec)	(deg/sec2)	(deg/sec2)	(kN·m)	(kN·m)	(kN)	(kN)	(kN·m)	(kN·m)	(kN·m)	(kN·m)	(kN·m)
  10.024	 2.612E+01	 8.660E-01	 1.590E-01	-2.486E-02	 7.188E+01	 1.455E+00	 2.836E+01	 2.164E+00	 3.369E-02	 9.937E-02	-6.508E-03	-2.770E-02	-1.838E-01	-8.564E-02	 3.611E+01	 2.277E+01	 4.931E+00	-8.887E-01	 1.811E+00	 3.946E+00	 3.687E+01	-2.011E+00	-2.013E+00
  10.052	 3.524E+01	 7.367E-01	 1.603E-01	-2.348E-02	 6.653E+01	 1.436E+00	 3.010E+01	 2.438E+00	 3.344E-02	 9.849E-02	-1.048E-02	-3.728E-02	-1.018E-01	-4.671E-01	 3.497E+01	 2.606E+01	 4.731E+00	-2.848E-01	 2.134E+00	 4.378E+00	 3.708E+01	-3.584E+00	-3.584E+00
  10.078	 4.371E+01	 6.000E-01	 1.638E-01	-2.173E-02	 6.364E+01	-2.528E-01	 3.025E+01	 2.687E+00	 3.314E-02	 9.740E-02	-1.265E-02	-4.481E-02	-8.150E-02	 8.594E-03	 3.510E+01	 2.920E+01	 4.711E+00	 3.837E-01	 2.451E+00	 4.519E+00	 3.621E+01	-5.372E+00	-5.371E+00
  10.104	 5.218E+01	 4.514E-01	 1.674E-01	-2.081E-02	 6.460E+01	-9.149E-01	 2.924E+01	 2.598E+00	 3.278E-02	 9.632E-02	-1.551E-02	-3.508E-02	-1.450E-01	 6.762E-01	 3.632E+01	 3.134E+01	 4.895E+00	 8.641E-01	 2.638E+00	 4.422E+00	 3.581E+01	-6.241E+00	-6.239E+00
  10.132	 6.130E+01	 2.802E-01	 1.714E-01	-2.116E-02	 6.518E+01	 5.718E-01	 2.869E+01	 2.238E+00	 3.228E-02	 9.563E-02	-2.027E-02	-1.446E-02	-1.739E-01	 6.367E-01	 3.737E+01	 3.222E+01	 5.050E+00	 1.069E+00	 2.641E+00	 4.362E+00	 3.643E+01	-6.140E+00	-6.138E+00
  10.158	 6.977E+01	 1.135E-01	 1.749E-01	-2.183E-02	 6.393E+01	 2.161E+00	 2.914E+01	 1.985E+00	 3.170E-02	 9.541E-02	-2.359E-02	-5.156E-03	-5.695E-02	 5.677E-02	 3.758E+01	 3.250E+01	 5.033E+00	 1.148E+00	 2.577E+00	 4.458E+00	 3.711E+01	-5.897E+00	-5.894E+00
  10.184	 7.824E+01	-5.746E-02	 1.772E-01	-2.187E-02	 6.277E+01	 2.201E+00	 2.974E+01	 1.995E+00	 3.109E-02	 9.524E-02	-2.253E-02	-8.586E-03	 1.365E-01	-2.151E-01	 3.769E+01	 3.311E+01	 4.988E+00	 1.296E+00	 2.586E+00	 4.551E+00	 3.716E+01	-5.909E+00	-5.905E+00
  10.212	 8.736E+01	-2.417E-01	 1.776E-01	-2.122E-02	 6.321E+01	 8.821E-01	 2.975E+01	 2.206E+00	 3.054E-02	 9.495E-02	-1.684E-02	-1.056E-02	 2.400E-01	 1.540E-01	 3.817E+01	 3.419E+01	 5.002E+00	 1.499E+00	 2.708E+00	 4.533E+00	 3.691E+01	-5.774E+00	-5.771E+00
  10.238	 9.583E+01	-4.075E-01	 1.765E-01	-2.071E-02	 6.431E+01	-6.996E-02	 2.958E+01	 2.400E+00	 3.018E-02	 9.478E-02	-1.107E-02	-5.888E-04	 1.869E-01	 5.663E-01	 3.868E+01	 3.483E+01	 5.022E+00	 1.571E+00	 2.801E+00	 4.474E+00	 3.700E+01	-5.134E+00	-5.131E+00
  10.266	 1.049E+02	-5.743E-01	 1.749E-01	-2.086E-02	 6.478E+01	 4.894E-02	 2.981E+01	 2.488E+00	 2.993E-02	 9.500E-02	-6.998E-03	 1.556E-02	 1.185E-01	 4.911E-01	 3.890E+01	 3.433E+01	 4.962E+00	 1.438E+00	 2.744E+00	 4.448E+00	 3.741E+01	-4.062E+00	-4.060E+00
  10.292	 1.134E+02	-7.137E-01	 1.738E-01	-2.147E-02	 6.467E+01	 5.488E-01	 3.014E+01	 2.499E+00	 2.979E-02	 9.553E-02	-3.489E-03	 2.346E-02	 1.706E-01	 1.122E-01	 3.895E+01	 3.297E+01	 4.869E+00	 1.185E+00	 2.571E+00	 4.428E+00	 3.765E+01	-3.046E+00	-3.044E+00
  10.318	 1.219E+02	-8.352E-01	 1.730E-01	-2.212E-02	 6.464E+01	 5.521E-01	 3.008E+01	 2.550E+00	 2.977E-02	 9.614E-02	 2.382E-03	 2.302E-02	 2.793E-01	-8.995E-02	 3.914E+01	 3.141E+01	 4.791E+00	 9.006E-01	 2.405E+00	 4.356E+00	 3.760E+01	-2.071E+00	-2.071E+00
  10.346	 1.310E+02	-9.436E-01	 1.724E-01	-2.269E-02	 6.461E+01	-1.245E-01	 2.979E+01	 2.724E+00	 2.995E-02	 9.676E-02	 1.099E-02	 2.189E-02	 3.118E-01	 5.453E-02	 3.949E+01	 2.987E+01	 4.734E+00	 5.719E-01	 2.292E+00	 4.249E+00	 3.750E+01	-1.009E+00	-1.009E+00
  10.372	 1.395E+02	-1.022E+00	 1.720E-01	-2.331E-02	 6.440E+01	-7.604E-01	 2.965E+01	 2.925E+00	 3.034E-02	 9.737E-02	 1.816E-02	 2.607E-02	 2.272E-01	 2.458E-01	 3.980E+01	 2.824E+01	 4.678E+00	 1.982E-01	 2.191E+00	 4.193E+00	 3.752E+01	-1.457E-01	-1.473E-01
  10.398	 1.480E+02	-1.077E+00	 1.714E-01	-2.421E-02	 6.436E+01	-1.008E+00	 2.962E+01	 3.057E+00	 3.087E-02	 9.814E-02	 2.261E-02	 3.283E-02	 1.178E-01	 2.245E-01	 4.003E+01	 2.605E+01	 4.603E+00	-2.747E-01	 2.021E+00	 4.202E+00	 3.759E+01	 3.557E-01	 3.532E-01
  10.426	 1.571E+02	-1.110E+00	 1.706E-01	-2.545E-02	 6.447E+01	-9.791E-01	 2.960E+01	 3.132E+00	 3.154E-02	 9.912E-02	 2.499E-02	 3.642E-02	 6.018E-02	 1.387E-02	 4.031E+01	 2.308E+01	 4.534E+00	-8.646E-01	 1.760E+00	 4.243E+00	 3.752E+01	 3.857E-01	 3.827E-01
  10.452	 1.656E+02	-1.116E+00	 1.697E-01	-2.666E-02	 6.480E+01	-1.082E+00	 2.839E+01	 3.212E+00	 3.221E-02	 1.000E-01	 2.620E-02	 3.367E-02	 3.721E-02	-2.185E-01	 4.017E+01	 1.999E+01	 4.372E+00	-1.455E+00	 1.537E+00	 4.259E+00	 3.720E+01	-8.613E-02	-8.957E-02
  10.478	 1.740E+02	-1.102E+00	 1.679E-01	-2.776E-02	 6.443E+01	-9.868E-01	 2.174E+01	 3.467E+00	 3.290E-02	 1.008E-01	 2.703E-02	 2.765E-02	 8.533E-03	-1.889E-01	 3.938E+01	 1.683E+01	 4.177E+00	-2.036E+00	 1.542E+00	 4.604E+00	 3.673E+01	-8.310E-01	-8.347E-01
  10.506	 1.832E+02	-1.072E+00	 1.635E-01	-2.867E-02	 6.257E+01	-6.467E-01	 3.533E+01	 3.434E+00	 3.364E-02	 1.015E-01	 2.523E-02	 2.030E-02	-8.356E-02	-1.926E-01	 3.725E+01	 1.192E+01	 3.820E+00	-2.769E+00	 7.322E-01	 4.800E+00	 3.541E+01	-2.390E+00	-2.393E+00
  10.532	 1.916E+02	-1.020E+00	 1.588E-01	-2.932E-02	 6.655E+01	-1.790E+00	 3.047E+01	 3.084E+00	 3.426E-02	 1.021E-01	 2.212E-02	 2.322E-02	-1.908E-01	 3.008E-01	 3.906E+01	 9.323E+00	 4.141E+00	-3.219E+00	 4.749E-01	 4.081E+00	 3.450E+01	-2.581E+00	-2.584E+00
  10.558	 2.001E+02	-9.343E-01	 1.588E-01	-2.992E-02	 7.040E+01	-3.685E+00	 2.845E+01	 3.585E+00	 3.476E-02	 1.028E-01	 1.591E-02	 3.120E-02	-2.639E-01	 1.811E-01	 4.014E+01	 9.376E+00	 4.227E+00	-3.587E+00	 7.023E-01	 3.592E+00	 3.577E+01	-1.888E+00	-1.890E+00
  10.586	 2.092E+02	-8.192E-01	 1.635E-01	-3.129E-02	 6.517E+01	-3.423E+00	 2.882E+01	 4.025E+00	 3.511E-02	 1.036E-01	 8.935E-03	 2.681E-02	-2.211E-01	-5.069E-01	 3.965E+01	 7.881E+00	 4.012E+00	-4.144E+00	 6.791E-01	 3.618E+00	 3.706E+01	-2.464E+00	-2.465E+00
  10.612	 2.177E+02	-6.927E-01	 1.695E-01	-3.320E-02	 6.161E+01	-2.594E+00	 2.994E+01	 3.923E+00	 3.527E-02	 1.041E-01	 3.969E-03	 9.745E-03	-1.670E-01	-6.587E-01	 3.903E+01	 4.411E+00	 3.736E+00	-4.749E+00	 2.994E-01	 3.948E+00	 3.678E+01	-4.213E+00	-4.212E+00
  10.638	 2.262E+02	-5.525E-01	 1.734E-01	-3.513E-02	 6.219E+01	-1.983E+00	 2.988E+01	 3.589E+00	 3.532E-02	 1.042E-01	-4.087E-04	-6.312E-04	-1.866E-01	-6.136E-02	 3.976E+01	 6.863E-01	 3.798E+00	-5.301E+00	-1.483E-01	 4.141E+00	 3.592E+01	-5.818E+00	-5.817E+00
  10.666	 2.353E+02	-3.894E-01	 1.755E-01	-3.654E-02	 6.499E+01	-2.297E+00	 2.894E+01	 3.560E+00	 3.522E-02	 1.042E-01	-6.836E-03	 6.405E-03	-2.710E-01	 4.421E-01	 4.129E+01	-1.181E+00	 4.059E+00	-5.697E+00	-2.969E-01	 4.198E+00	 3.587E+01	-6.356E+00	-6.354E+00
  10.692	 2.437E+02	-2.287E-01	 1.775E-01	-3.708E-02	 6.541E+01	-3.246E+00	 2.871E+01	 3.928E+00	 3.495E-02	 1.045E-01	-1.413E-02	 1.525E-02	-2.657E-01	 1.265E-01	 4.204E+01	-1.065E+00	 4.181E+00	-5.896E+00	-1.589E-01	 4.311E+00	 3.663E+01	-6.107E+00	-6.104E+00
  10.718	 2.522E+02	-6.197E-02	 1.799E-01	-3.734E-02	 6.397E+01	-4.028E+00	 2.914E+01	 4.267E+00	 3.450E-02	 1.049E-01	-1.938E-02	 1.060E-02	-1.179E-01	-4.583E-01	 4.210E+01	-9.436E-01	 4.173E+00	-6.042E+00	-6.033E-02	 4.488E+00	 3.716E+01	-5.918E+00	-5.914E+00
  10.746	 2.613E+02	 1.211E-01	 1.822E-01	-3.787E-02	 6.352E+01	-3.965E+00	 2.932E+01	 4.210E+00	 3.394E-02	 1.050E-01	-1.981E-02	-5.007E-03	 7.488E-02	-5.243E-01	 4.214E+01	-1.904E+00	 4.181E+00	-6.221E+00	-1.774E-01	 4.594E+00	 3.706E+01	-5.925E+00	-5.921E+00
  10.774	 2.704E+02	 3.023E-01	 1.835E-01	-3.865E-02	 6.461E+01	-3.129E+00	 2.896E+01	 3.882E+00	 3.343E-02	 1.047E-01	-1.666E-02	-1.327E-02	 1.185E-01	-3.125E-02	 4.236E+01	-3.136E+00	 4.268E+00	-6.381E+00	-3.750E-01	 4.556E+00	 3.690E+01	-5.598E+00	-5.594E+00
  10.800	 2.789E+02	 4.634E-01	 1.839E-01	-3.902E-02	 6.531E+01	-2.538E+00	 2.868E+01	 3.695E+00	 3.303E-02	 1.044E-01	-1.445E-02	-9.396E-03	 4.609E-02	 2.488E-01	 4.230E+01	-3.217E+00	 4.335E+00	-6.408E+00	-4.086E-01	 4.483E+00	 3.715E+01	-4.788E+00	-4.785E+00
  10.828	 2.880E+02	 6.237E-01	 1.836E-01	-3.864E-02	 6.505E+01	-2.677E+00	 2.874E+01	 3.739E+00	 3.264E-02	 1.042E-01	-1.381E-02	-4.496E-03	 2.258E-02	 2.857E-02	 4.181E+01	-1.954E+00	 4.357E+00	-6.254E+00	-2.549E-01	 4.437E+00	 3.757E+01	-3.673E+00	-3.671E+00
  10.854	 2.965E+02	 7.562E-01	 1.826E-01	-3.779E-02	 6.496E+01	-3.101E+00	 2.890E+01	 3.797E+00	 3.229E-02	 1.041E-01	-1.215E-02	-8.298E-03	 1.193E-01	-2.983E-01	 4.128E+01	-3.299E-01	 4.387E+00	-5.996E+00	-7.032E-02	 4.416E+00	 3.771E+01	-2.685E+00	-2.684E+00
  10.880	 3.050E+02	 8.704E-01	 1.809E-01	-3.690E-02	 6.565E+01	-3.030E+00	 2.891E+01	 3.677E+00	 3.203E-02	 1.037E-01	-7.503E-03	-1.726E-02	 2.265E-01	-3.299E-01	 4.090E+01	 1.097E+00	 4.457E+00	-5.699E+00	 5.566E-02	 4.393E+00	 3.762E+01	-1.715E+00	-1.715E+00
  10.908	 3.141E+02	 9.708E-01	 1.791E-01	-3.607E-02	 6.643E+01	-2.364E+00	 2.899E+01	 3.451E+00	 3.192E-02	 1.032E-01	-7.973E-04	-2.317E-02	 2.289E-01	-7.011E-02	 4.054E+01	 2.627E+00	 4.545E+00	-5.343E+00	 1.534E-01	 4.378E+00	 3.757E+01	-6.893E-01	-6.903E-01
  10.934	 3.226E+02	 1.042E+00	 1.781E-01	-3.524E-02	 6.642E+01	-1.729E+00	 2.912E+01	 3.300E+00	 3.196E-02	 1.026E-01	 4.092E-03	-2.221E-02	 1.405E-01	 1.133E-01	 4.009E+01	 4.512E+00	 4.592E+00	-4.936E+00	 2.998E-01	 4.369E+00	 3.764E+01	 5.394E-02	 5.201E-02
  10.960	 3.311E+02	 1.090E+00	 1.779E-01	-3.416E-02	 6.574E+01	-1.431E+00	 2.916E+01	 3.244E+00	 3.211E-02	 1.020E-01	 6.618E-03	-1.949E-02	 6.302E-02	 5.837E-02	 3.955E+01	 6.995E+00	 4.584E+00	-4.425E+00	 5.280E-01	 4.348E+00	 3.768E+01	 3.716E-01	 3.690E-01
  10.988	 3.402E+02	 1.115E+00	 1.783E-01	-3.280E-02	 6.515E+01	-1.353E+00	 2.918E+01	 3.224E+00	 3.231E-02	 1.015E-01	 7.974E-03	-2.022E-02	 3.788E-02	-1.261E-01	 3.893E+01	 1.001E+01	 4.521E+00	-3.778E+00	 8.130E-01	 4.309E+00	 3.753E+01	 2.380E-01	 2.348E-01
  11.014	 3.487E+02	 1.115E+00	 1.792E-01	-3.157E-02	 6.721E+01	-6.925E-01	 2.956E+01	 3.255E+00	 3.253E-02	 1.009E-01	 8.964E-03	-2.538E-02	 3.643E-02	-2.638E-01	 3.792E+01	 1.293E+01	 4.338E+00	-3.056E+00	 1.086E+00	 4.285E+00	 3.705E+01	-4.415E-01	-4.451E-01
  11.040	 3.571E+02	 1.095E+00	 1.803E-01	-2.981E-02	 4.569E+01	 3.323E+00	 3.027E+01	 3.348E+00	 3.278E-02	 1.002E-01	 9.677E-03	-2.979E-02	-3.985E-02	-1.868E-01	 3.625E+01	 1.572E+01	 4.388E+00	-2.457E+00	 1.322E+00	 4.253E+00	 3.674E+01	-1.039E+00	-1.043E+00
  11.068	 6.252E+00	 1.062E+00	 1.747E-01	-2.638E-02	 6.505E+01	-4.232E+00	 2.987E+01	 3.382E+00	 3.303E-02	 9.926E-02	 8.220E-03	-3.299E-02	-5.297E-02	 1.931E-01	 3.472E+01	 1.929E+01	 4.139E+00	-1.662E+00	 1.696E+00	 4.168E+00	 3.495E+01	-2.684E+00	-2.687E+00
  11.094	 1.472E+01	 9.966E-01	 1.656E-01	-2.518E-02	 7.142E+01	-2.330E+00	 2.793E+01	 2.676E+00	 3.321E-02	 9.851E-02	 5.168E-03	-2.281E-02	-1.766E-01	 5.229E-01	 3.596E+01	 2.040E+01	 4.690E+00	-1.267E+00	 1.674E+00	 3.777E+00	 3.490E+01	-2.250E+00	-2.253E+00
  11.120	 2.319E+01	 9.034E-01	 1.595E-01	-2.502E-02	 7.246E+01	 8.729E-01	 2.784E+01	 2.183E+00	 3.328E-02	 9.808E-02	 1.035E-04	-1.220E-02	-1.909E-01	 1.830E-01	 3.633E+01	 2.189E+01	 4.949E+00	-1.021E+00	 1.732E+00	 3.811E+00	 3.641E+01	-1.818E+00	-1.820E+00
  11.148	 3.231E+01	 7.806E-01	 1.593E-01	-2.402E-02	 6.837E+01	 1.766E+00	 2.967E+01	 2.322E+00	 3.322E-02	 9.772E-02	-4.265E-03	-1.630E-02	-1.176E-01	-4.072E-01	 3.516E+01	 2.492E+01	 4.772E+00	-5.049E-01	 2.020E+00	 4.252E+00	 3.718E+01	-2.957E+00	-2.958E+00
  11.174	 4.078E+01	 6.480E-01	 1.623E-01	-2.227E-02	 6.402E+01	 3.634E-01	 3.043E+01	 2.634E+00	 3.307E-02	 9.715E-02	-6.587E-03	-2.637E-02	-7.314E-02	-2.182E-01	 3.480E+01	 2.816E+01	 4.677E+00	 1.624E-01	 2.347E+00	 4.503E+00	 3.650E+01	-4.829E+00	-4.828E+00
  11.200	 4.925E+01	 5.028E-01	 1.659E-01	-2.094E-02	 6.413E+01	-9.379E-01	 2.963E+01	 2.673E+00	 3.287E-02	 9.647E-02	-8.930E-03	-2.283E-02	-1.204E-01	 4.898E-01	 3.579E+01	 3.075E+01	 4.813E+00	 7.350E-01	 2.594E+00	 4.460E+00	 3.579E+01	-6.090E+00	-6.088E+00
  11.228	 5.837E+01	 3.348E-01	 1.698E-01	-2.090E-02	 6.525E+01	-6.040E-02	 2.872E+01	 2.362E+00	 3.257E-02	 9.609E-02	-1.340E-02	-3.506E-03	-1.864E-01	 7.318E-01	 3.709E+01	 3.205E+01	 5.017E+00	 1.033E+00	 2.656E+00	 4.353E+00	 3.613E+01	-6.254E+00	-6.252E+00
  11.254	 6.684E+01	 1.703E-01	 1.736E-01	-2.161E-02	 6.448E+01	 1.740E+00	 2.889E+01	 2.048E+00	 3.216E-02	 9.620E-02	-1.779E-02	 9.906E-03	-1.253E-01	 2.248E-01	 3.754E+01	 3.239E+01	 5.050E+00	 1.122E+00	 2.595E+00	 4.407E+00	 3.690E+01	-5.966E+00	-5.963E+00
  11.282	 7.596E+01	-1.260E-02	 1.767E-01	-2.192E-02	 6.291E+01	 2.376E+00	 2.956E+01	 1.965E+00	 3.163E-02	 9.648E-02	-1.871E-02	 8.045E-03	 6.985E-02	-2.629E-01	 3.762E+01	 3.288E+01	 4.999E+00	 1.250E+00	 2.571E+00	 4.529E+00	 3.718E+01	-5.901E+00	-5.897E+00
  11.308	 8.443E+01	-1.839E-01	 1.777E-01	-2.145E-02	 6.287E+01	 1.354E+00	 2.976E+01	 2.129E+00	 3.119E-02	 9.661E-02	-1.482E-02	 2.316E-03	 2.065E-01	-8.046E-02	 3.800E+01	 3.384E+01	 5.000E+00	 1.443E+00	 2.661E+00	 4.545E+00	 3.695E+01	-5.878E+00	-5.875E+00
  11.334	 9.290E+01	-3.518E-01	 1.770E-01	-2.083E-02	 6.394E+01	 1.433E-01	 2.955E+01	 2.343E+00	 3.088E-02	 9.669E-02	-9.342E-03	 6.372E-03	 1.913E-01	 3.846E-01	 3.858E+01	 3.471E+01	 5.032E+00	 1.571E+00	 2.781E+00	 4.491E+00	 3.689E+01	-5.415E+00	-5.412E+00
  11.362	 1.020E+02	-5.226E-01	 1.756E-01	-2.074E-02	 6.469E+01	-1.059E-01	 2.965E+01	 2.476E+00	 3.068E-02	 9.706E-02	-5.287E-03	 2.005E-02	 1.021E-01	 4.900E-01	 3.895E+01	 3.464E+01	 5.007E+00	 1.507E+00	 2.783E+00	 4.454E+00	 3.725E+01	-4.423E+00	-4.420E+00
  11.388	 1.105E+02	-6.671E-01	 1.744E-01	-2.126E-02	 6.468E+01	 3.848E-01	 3.001E+01	 2.497E+00	 3.057E-02	 9.771E-02	-2.810E-03	 2.882E-02	 1.098E-01	 1.493E-01	 3.904E+01	 3.351E+01	 4.922E+00	 1.283E+00	 2.637E+00	 4.446E+00	 3.759E+01	-3.384E+00	-3.382E+00
  11.414	 1.190E+02	-7.946E-01	 1.736E-01	-2.194E-02	 6.460E+01	 6.298E-01	 3.007E+01	 2.517E+00	 3.055E-02	 9.847E-02	 1.285E-03	 2.814E-02	 2.128E-01	-1.606E-01	 3.918E+01	 3.194E+01	 4.841E+00	 1.001E+00	 2.456E+00	 4.397E+00	 3.763E+01	-2.402E+00	-2.401E+00
  11.442	 1.281E+02	-9.101E-01	 1.730E-01	-2.256E-02	 6.459E+01	 1.191E-01	 2.982E+01	 2.654E+00	 3.068E-02	 9.919E-02	 8.542E-03	 2.333E-02	 2.865E-01	-1.190E-01	 3.952E+01	 3.036E+01	 4.781E+00	 6.832E-01	 2.323E+00	 4.293E+00	 3.752E+01	-1.344E+00	-1.344E+00
  11.468	 1.366E+02	-9.957E-01	 1.726E-01	-2.312E-02	 6.443E+01	-5.841E-01	 2.962E+01	 2.853E+00	 3.099E-02	 9.978E-02	 1.555E-02	 2.309E-02	 2.345E-01	 9.741E-02	 3.986E+01	 2.886E+01	 4.731E+00	 3.381E-01	 2.230E+00	 4.217E+00	 3.750E+01	-4.174E-01	-4.188E-01
  11.494	 1.450E+02	-1.059E+00	 1.721E-01	-2.392E-02	 6.429E+01	-9.652E-01	 2.960E+01	 3.015E+00	 3.147E-02	 1.004E-01	 2.023E-02	 2.712E-02	 1.244E-01	 1.765E-01	 4.013E+01	 2.689E+01	 4.670E+00	-1.009E-01	 2.088E+00	 4.206E+00	 3.759E+01	 2.363E-01	 2.340E-01
  11.522	 1.542E+02	-1.101E+00	 1.714E-01	-2.510E-02	 6.432E+01	-9.749E-01	 2.961E+01	 3.104E+00	 3.207E-02	 1.012E-01	 2.240E-02	 2.985E-02	 4.594E-02	 3.688E-03	 4.038E+01	 2.408E+01	 4.593E+00	-6.703E-01	 1.846E+00	 4.242E+00	 3.757E+01	 4.110E-01	 4.080E-01
  11.548	 1.626E+02	-1.115E+00	 1.705E-01	-2.631E-02	 6.469E+01	-1.057E+00	 2.908E+01	 3.178E+00	 3.266E-02	 1.020E-01	 2.317E-02	 2.698E-02	 1.815E-02	-2.291E-01	 4.044E+01	 2.111E+01	 4.471E+00	-1.249E+00	 1.600E+00	 4.267E+00	 3.737E+01	 1.355E-01	 1.321E-01
  11.574	 1.711E+02	-1.108E+00	 1.690E-01	-2.747E-02	 6.433E+01	-8.743E-01	 2.400E+01	 3.224E+00	 3.327E-02	 1.026E-01	 2.353E-02	 1.919E-02	 1.254E-02	-3.016E-01	 3.996E+01	 1.783E+01	 4.305E+00	-1.835E+00	 1.536E+00	 4.458E+00	 3.682E+01	-6.635E-01	-6.671E-01
  11.602	 1.802E+02	-1.081E+00	 1.659E-01	-2.843E-02	 6.460E+01	-1.291E+00	 3.342E+01	 3.736E+00	 3.392E-02	 1.030E-01	 2.226E-02	 1.086E-02	-1.076E-01	-4.029E-01	 3.716E+01	 1.381E+01	 3.689E+00	-2.542E+00	 1.081E+00	 4.985E+00	 3.611E+01	-1.774E+00	-1.778E+00
  11.628	 1.887E+02	-1.042E+00	 1.603E-01	-2.919E-02	 6.391E+01	-1.018E+00	 3.134E+01	 3.070E+00	 3.446E-02	 1.032E-01	 1.942E-02	 7.639E-03	-1.507E-01	 1.333E-01	 3.852E+01	 9.661E+00	 4.094E+00	-3.102E+00	 4.555E-01	 4.342E+00	 3.454E+01	-2.780E+00	-2.784E+00
  11.654	 1.972E+02	-9.661E-01	 1.585E-01	-2.970E-02	 7.031E+01	-3.309E+00	 2.892E+01	 3.377E+00	 3.490E-02	 1.035E-01	 1.379E-02	 1.454E-02	-2.641E-01	 2.831E-01	 4.000E+01	 9.377E+00	 4.232E+00	-3.450E+00	 6.263E-01	 3.725E+00	 3.523E+01	-2.069E+00	-2.072E+00
  11.682	 2.063E+02	-8.587E-01	 1.618E-01	-3.078E-02	 6.724E+01	-3.663E+00	 2.844E+01	 3.936E+00	 3.518E-02	 1.040E-01	 6.361E-03	 1.553E-02	-2.458E-01	-2.983E-01	 4.003E+01	 8.665E+00	 4.135E+00	-3.948E+00	 7.359E-01	 3.549E+00	 3.682E+01	-2.077E+00	-2.079E+00
  11.708	 2.148E+02	-7.385E-01	 1.678E-01	-3.253E-02	 6.241E+01	-2.900E+00	 2.963E+01	 4.010E+00	 3.527E-02	 1.042E-01	 8.285E-04	 9.172E-04	-1.796E-01	-7.085E-01	 3.918E+01	 5.789E+00	 3.811E+00	-4.538E+00	 4.614E-01	 3.836E+00	 3.705E+01	-3.537E+00	-3.538E+00
  11.734	 2.232E+02	-6.026E-01	 1.726E-01	-3.454E-02	 6.151E+01	-2.112E+00	 3.009E+01	 3.695E+00	 3.524E-02	 1.040E-01	-3.400E-03	-1.389E-02	-1.616E-01	-3.015E-01	 3.937E+01	 1.851E+00	 3.739E+00	-5.128E+00	-1.314E-02	 4.102E+00	 3.621E+01	-5.357E+00	-5.356E+00
  11.762	 2.323E+02	-4.434E-01	 1.752E-01	-3.622E-02	 6.415E+01	-2.069E+00	 2.924E+01	 3.509E+00	 3.507E-02	 1.036E-01	-8.852E-03	-1.167E-02	-2.365E-01	 3.974E-01	 4.083E+01	-8.778E-01	 3.975E+00	-5.597E+00	-2.974E-01	 4.183E+00	 3.577E+01	-6.315E+00	-6.313E+00
  11.790	 2.415E+02	-2.730E-01	 1.770E-01	-3.700E-02	 6.560E+01	-2.986E+00	 2.870E+01	 3.818E+00	 3.472E-02	 1.035E-01	-1.625E-02	 6.489E-04	-2.696E-01	 3.248E-01	 4.193E+01	-1.160E+00	 4.160E+00	-5.853E+00	-2.044E-01	 4.271E+00	 3.643E+01	-6.184E+00	-6.181E+00
  11.816	 2.499E+02	-1.075E-01	 1.792E-01	-3.726E-02	 6.442E+01	-3.892E+00	 2.902E+01	 4.209E+00	 3.422E-02	 1.035E-01	-2.203E-02	 1.526E-03	-1.507E-01	-2.659E-01	 4.209E+01	-8.681E-01	 4.170E+00	-6.001E+00	-6.643E-02	 4.440E+00	 3.710E+01	-5.929E+00	-5.925E+00
  11.844	 2.590E+02	 7.535E-02	 1.816E-01	-3.768E-02	 6.350E+01	-4.094E+00	 2.935E+01	 4.270E+00	 3.357E-02	 1.034E-01	-2.329E-02	-1.116E-02	 5.784E-02	-5.163E-01	 4.206E+01	-1.548E+00	 4.155E+00	-6.172E+00	-1.266E-01	 4.581E+00	 3.715E+01	-5.925E+00	-5.921E+00
  11.870	 2.675E+02	 2.451E-01	 1.830E-01	-3.838E-02	 6.426E+01	-3.445E+00	 2.914E+01	 4.001E+00	 3.300E-02	 1.030E-01	-2.025E-02	-2.052E-02	 1.497E-01	-1.343E-01	 4.223E+01	-2.790E+00	 4.217E+00	-6.337E+00	-3.177E-01	 4.577E+00	 3.693E+01	-5.767E+00	-5.763E+00
  11.896	 2.760E+02	 4.096E-01	 1.835E-01	-3.892E-02	 6.525E+01	-2.679E+00	 2.878E+01	 3.741E+00	 3.252E-02	 1.024E-01	-1.681E-02	-1.782E-02	 9.975E-02	 2.875E-01	 4.228E+01	-3.332E+00	 4.296E+00	-6.415E+00	-4.185E-01	 4.502E+00	 3.703E+01	-5.117E+00	-5.113E+00
  11.924	 2.851E+02	 5.754E-01	 1.835E-01	-3.881E-02	 6.526E+01	-2.566E+00	 2.873E+01	 3.720E+00	 3.208E-02	 1.021E-01	-1.506E-02	-9.218E-03	 4.057E-02	 2.313E-01	 4.190E+01	-2.454E+00	 4.329E+00	-6.320E+00	-3.163E-01	 4.441E+00	 3.746E+01	-4.040E+00	-4.038E+00
  11.950	 2.936E+02	 7.141E-01	 1.827E-01	-3.806E-02	 6.496E+01	-2.990E+00	 2.890E+01	 3.807E+00	 3.170E-02	 1.019E-01	-1.345E-02	-7.633E-03	 1.035E-01	-1.170E-01	 4.134E+01	-8.710E-01	 4.347E+00	-6.090E+00	-1.281E-01	 4.414E+00	 3.771E+01	-3.027E+00	-3.025E+00
  11.976	 3.021E+02	 8.351E-01	 1.812E-01	-3.714E-02	 6.539E+01	-3.136E+00	 2.894E+01	 3.746E+00	 3.140E-02	 1.016E-01	-9.139E-03	-1.351E-02	 2.249E-01	-2.755E-01	 4.090E+01	 6.402E-01	 4.403E+00	-5.802E+00	 2.187E-02	 4.391E+00	 3.766E+01	-2.061E+00	-2.061E+00
  12.004	 3.112E+02	 9.435E-01	 1.792E-01	-3.628E-02	 6.629E+01	-2.614E+00	 2.900E+01	 3.534E+00	 3.124E-02	 1.011E-01	-1.891E-03	-1.918E-02	 2.700E-01	-8.350E-02	 4.055E+01	 2.105E+00	 4.495E+00	-5.463E+00	 1.204E-01	 4.371E+00	 3.757E+01	-1.008E+00	-1.009E+00
  12.030	 3.197E+02	 1.022E+00	 1.779E-01	-3.550E-02	 6.658E+01	-1.920E+00	 2.913E+01	 3.351E+00	 3.128E-02	 1.006E-01	 4.374E-03	-1.808E-02	 1.985E-01	 1.499E-01	 4.014E+01	 3.785E+00	 4.554E+00	-5.086E+00	 2.395E-01	 4.363E+00	 3.760E+01	-1.608E-01	-1.624E-01
  12.056	 3.281E+02	 1.078E+00	 1.775E-01	-3.452E-02	 6.599E+01	-1.473E+00	 2.919E+01	 3.264E+00	 3.145E-02	 1.002E-01	 8.253E-03	-1.328E-02	 1.032E-01	 1.687E-01	 3.962E+01	 6.069E+00	 4.566E+00	-4.612E+00	 4.399E-01	 4.348E+00	 3.767E+01	 3.277E-01	 3.253E-01
  12.084	 3.372E+02	 1.112E+00	 1.778E-01	-3.319E-02	 6.532E+01	-1.395E+00	 2.920E+01	 3.250E+00	 3.172E-02	 9.991E-02	 1.046E-02	-1.053E-02	 6.022E-02	-2.359E-03	 3.904E+01	 9.021E+00	 4.539E+00	-3.998E+00	 7.170E-01	 4.313E+00	 3.760E+01	 3.470E-01	 3.439E-01
  12.110	 3.457E+02	 1.119E+00	 1.784E-01	-3.193E-02	 6.577E+01	-1.121E+00	 2.937E+01	 3.231E+00	 3.201E-02	 9.961E-02	 1.190E-02	-1.288E-02	 5.276E-02	-1.649E-01	 3.828E+01	 1.189E+01	 4.416E+00	-3.327E+00	 9.879E-01	 4.282E+00	 3.725E+01	-1.066E-01	-1.101E-01
  12.136	 3.542E+02	 1.106E+00	 1.803E-01	-3.063E-02	 4.925E+01	 3.532E+00	 2.963E+01	 3.179E+00	 3.233E-02	 9.921E-02	 1.330E-02	-1.725E-02	 4.090E-02	-5.815E-02	 3.712E+01	 1.474E+01	 4.454E+00	-2.635E+00	 1.269E+00	 4.264E+00	 3.680E+01	-8.178E-01	-8.215E-01
  12.164	 3.320E+00	 1.076E+00	 1.768E-01	-2.731E-02	 5.819E+01	-2.914E+00	 3.048E+01	 3.454E+00	 3.270E-02	 9.868E-02	 1.252E-02	-2.148E-02	-4.081E-02	-1.148E-02	 3.464E+01	 1.832E+01	 4.042E+00	-1.890E+00	 1.613E+00	 4.236E+00	 3.544E+01	-2.346E+00	-2.350E+00
  12.190	 1.179E+01	 1.024E+00	 1.685E-01	-2.533E-02	 7.016E+01	-3.484E+00	 2.860E+01	 2.938E+00	 3.301E-02	 9.818E-02	 1.063E-02	-1.448E-02	-1.362E-01	 4.743E-01	 3.535E+01	 2.013E+01	 4.455E+00	-1.347E+00	 1.705E+00	 3.895E+00	 3.457E+01	-2.555E+00	-2.558E+00
  12.216	 2.026E+01	 9.383E-01	 1.607E-01	-2.506E-02	 7.236E+01	-2.076E-02	 2.755E+01	 2.284E+00	 3.323E-02	 9.798E-02	 5.921E-03	-1.711E-03	-2.014E-01	 3.773E-01	 3.639E+01	 2.119E+01	 4.924E+00	-1.122E+00	 1.680E+00	 3.725E+00	 3.585E+01	-1.829E+00	-1.831E+00
  12.244	 2.938E+01	 8.227E-01	 1.586E-01	-2.445E-02	 7.026E+01	 1.804E+00	 2.910E+01	 2.224E+00	 3.332E-02	 9.800E-02	 8.855E-04	-2.891E-04	-1.483E-01	-2.838E-01	 3.551E+01	 2.384E+01	 4.836E+00	-7.007E-01	 1.912E+00	 4.098E+00	 3.711E+01	-2.430E+00	-2.431E+00
  12.270	 3.785E+01	 6.955E-01	 1.609E-01	-2.288E-02	 6.502E+01	 9.962E-01	 3.037E+01	 2.542E+00	 3.330E-02	 9.786E-02	-2.103E-03	-1.121E-02	-8.791E-02	-4.098E-01	 3.473E+01	 2.705E+01	 4.683E+00	-7.136E-02	 2.233E+00	 4.445E+00	 3.680E+01	-4.198E+00	-4.198E+00
  12.298	 4.697E+01	 5.430E-01	 1.649E-01	-2.117E-02	 6.374E+01	-7.580E-01	 2.989E+01	 2.700E+00	 3.321E-02	 9.746E-02	-4.643E-03	-1.422E-02	-1.126E-01	 2.683E-01	 3.544E+01	 3.018E+01	 4.761E+00	 6.092E-01	 2.544E+00	 4.485E+00	 3.588E+01	-5.875E+00	-5.874E+00
  12.324	 5.544E+01	 3.899E-01	 1.686E-01	-2.076E-02	 6.503E+01	-5.800E-01	 2.887E+01	 2.485E+00	 3.304E-02	 9.725E-02	-8.617E-03	 4.280E-05	-1.899E-01	 7.115E-01	 3.677E+01	 3.178E+01	 4.971E+00	 9.743E-01	 2.657E+00	 4.370E+00	 3.589E+01	-6.316E+00	-6.314E+00
  12.350	 6.390E+01	 2.281E-01	 1.724E-01	-2.136E-02	 6.490E+01	 1.162E+00	 2.868E+01	 2.139E+00	 3.275E-02	 9.747E-02	-1.377E-02	 1.587E-02	-1.822E-01	 3.883E-01	 3.751E+01	 3.230E+01	 5.067E+00	 1.099E+00	 2.619E+00	 4.372E+00	 3.664E+01	-6.068E+00	-6.065E+00
  12.378	 7.302E+01	 4.697E-02	 1.761E-01	-2.193E-02	 6.329E+01	 2.393E+00	 2.934E+01	 1.959E+00	 3.231E-02	 9.798E-02	-1.686E-02	 1.738E-02	-1.800E-02	-2.366E-01	 3.765E+01	 3.267E+01	 5.026E+00	 1.199E+00	 2.566E+00	 4.500E+00	 3.716E+01	-5.898E+00	-5.894E+00
  12.404	 8.149E+01	-1.242E-01	 1.778E-01	-2.169E-02	 6.266E+01	 1.803E+00	 2.973E+01	 2.059E+00	 3.188E-02	 9.833E-02	-1.492E-02	 9.249E-03	 1.532E-01	-2.764E-01	 3.792E+01	 3.348E+01	 5.011E+00	 1.378E+00	 2.620E+00	 4.558E+00	 3.703E+01	-5.924E+00	-5.920E+00
  12.430	 8.996E+01	-2.935E-01	 1.777E-01	-2.103E-02	 6.350E+01	 4.867E-01	 2.956E+01	 2.272E+00	 3.156E-02	 9.852E-02	-1.011E-02	 7.335E-03	 1.892E-01	 1.631E-01	 3.849E+01	 3.448E+01	 5.045E+00	 1.545E+00	 2.747E+00	 4.519E+00	 3.686E+01	-5.638E+00	-5.634E+00
  12.458	 9.909E+01	-4.680E-01	 1.763E-01	-2.071E-02	 6.453E+01	-1.716E-01	 2.953E+01	 2.450E+00	 3.134E-02	 9.884E-02	-5.918E-03	 1.714E-02	 1.025E-01	 4.480E-01	 3.898E+01	 3.482E+01	 5.048E+00	 1.554E+00	 2.803E+00	 4.469E+00	 3.711E+01	-4.774E+00	-4.771E+00
  12.484	 1.076E+02	-6.174E-01	 1.751E-01	-2.107E-02	 6.468E+01	 1.857E-01	 2.987E+01	 2.496E+00	 3.121E-02	 9.942E-02	-3.943E-03	 2.657E-02	 6.901E-02	 2.145E-01	 3.913E+01	 3.400E+01	 4.976E+00	 1.374E+00	 2.699E+00	 4.459E+00	 3.750E+01	-3.734E+00	-3.732E+00
  12.510	 1.160E+02	-7.509E-01	 1.742E-01	-2.175E-02	 6.459E+01	 6.200E-01	 3.004E+01	 2.497E+00	 3.114E-02	 1.001E-01	-1.285E-03	 2.710E-02	 1.511E-01	-1.563E-01	 3.922E+01	 3.249E+01	 4.888E+00	 1.100E+00	 2.515E+00	 4.429E+00	 3.765E+01	-2.735E+00	-2.733E+00
  12.538	 1.252E+02	-8.737E-01	 1.735E-01	-2.242E-02	 6.458E+01	 3.500E-01	 2.990E+01	 2.595E+00	 3.118E-02	 1.008E-01	 4.568E-03	 2.056E-02	 2.542E-01	-2.402E-01	 3.949E+01	 3.086E+01	 4.815E+00	 7.924E-01	 2.358E+00	 4.336E+00	 3.755E+01	-1.680E+00	-1.680E+00
  12.564	 1.336E+02	-9.666E-01	 1.731E-01	-2.296E-02	 6.446E+01	-3.660E-01	 2.965E+01	 2.781E+00	 3.139E-02	 1.013E-01	 1.134E-02	 1.673E-02	 2.452E-01	-3.594E-02	 3.984E+01	 2.942E+01	 4.766E+00	 4.677E-01	 2.265E+00	 4.243E+00	 3.750E+01	-7.175E-01	-7.185E-01
  12.590	 1.421E+02	-1.038E+00	 1.727E-01	-2.365E-02	 6.429E+01	-8.806E-01	 2.954E+01	 2.959E+00	 3.175E-02	 1.017E-01	 1.652E-02	 1.819E-02	 1.454E-01	 1.182E-01	 4.011E+01	 2.764E+01	 4.704E+00	 6.159E-02	 2.146E+00	 4.207E+00	 3.756E+01	 4.979E-02	 4.784E-02
  12.618	 1.512E+02	-1.089E+00	 1.720E-01	-2.474E-02	 6.428E+01	-1.003E+00	 2.957E+01	 3.075E+00	 3.226E-02	 1.023E-01	 1.908E-02	 2.080E-02	 4.866E-02	 2.412E-02	 4.035E+01	 2.504E+01	 4.624E+00	-4.809E-01	 1.931E+00	 4.232E+00	 3.760E+01	 3.993E-01	 3.966E-01
  12.644	 1.597E+02	-1.112E+00	 1.711E-01	-2.593E-02	 6.457E+01	-1.002E+00	 2.941E+01	 3.135E+00	 3.277E-02	 1.028E-01	 1.985E-02	 1.885E-02	 1.283E-02	-1.917E-01	 4.053E+01	 2.217E+01	 4.534E+00	-1.044E+00	 1.682E+00	 4.267E+00	 3.747E+01	 2.750E-01	 2.717E-01
  12.670	 1.682E+02	-1.112E+00	 1.699E-01	-2.712E-02	 6.472E+01	-9.807E-01	 2.724E+01	 3.168E+00	 3.329E-02	 1.032E-01	 2.005E-02	 1.155E-02	 3.820E-04	-3.706E-01	 4.016E+01	 1.896E+01	 4.339E+00	-1.636E+00	 1.509E+00	 4.309E+00	 3.702E+01	-3.801E-01	-3.838E-01
  12.698	 1.773E+02	-1.090E+00	 1.675E-01	-2.818E-02	 6.497E+01	-1.336E+00	 2.721E+01	 3.806E+00	 3.385E-02	 1.034E-01	 1.965E-02	 3.118E-03	-7.948E-02	-3.199E-01	 3.837E+01	 1.561E+01	 3.934E+00	-2.287E+00	 1.374E+00	 4.881E+00	 3.669E+01	-1.094E+00	-1.098E+00
  12.724	 1.858E+02	-1.059E+00	 1.621E-01	-2.899E-02	 6.197E+01	-5.327E-01	 3.251E+01	 3.204E+00	 3.432E-02	 1.034E-01	 1.698E-02	-4.350E-03	-1.028E-01	-1.525E-03	 3.809E+01	 1.062E+01	 4.059E+00	-2.950E+00	 5.363E-01	 4.619E+00	 3.498E+01	-2.667E+00	-2.671E+00
  12.750	 1.942E+02	-9.959E-01	 1.587E-01	-2.953E-02	 6.878E+01	-2.599E+00	 2.967E+01	 3.195E+00	 3.472E-02	 1.033E-01	 1.260E-02	 5.496E-04	-2.330E-01	 3.256E-01	 3.963E+01	 9.298E+00	 4.205E+00	-3.331E+00	 5.356E-01	 3.903E+00	 3.479E+01	-2.346E+00	-2.350E+00
  12.778	 2.034E+02	-8.962E-01	 1.603E-01	-3.035E-02	 6.915E+01	-3.788E+00	 2.830E+01	 3.791E+00	 3.497E-02	 1.034E-01	 5.363E-03	 6.357E-03	-2.563E-01	-4.287E-02	 4.022E+01	 9.160E+00	 4.211E+00	-3.767E+00	 7.445E-01	 3.535E+00	 3.641E+01	-1.874E+00	-1.876E+00
  12.804	 2.118E+02	-7.829E-01	 1.657E-01	-3.188E-02	 6.372E+01	-3.193E+00	 2.921E+01	 4.047E+00	 3.503E-02	 1.035E-01	-5.158E-04	-3.006E-03	-1.919E-01	-6.172E-01	 3.943E+01	 7.016E+00	 3.916E+00	-4.327E+00	 5.949E-01	 3.714E+00	 3.717E+01	-2.904E+00	-2.905E+00
  12.832	 2.209E+02	-6.413E-01	 1.715E-01	-3.401E-02	 6.136E+01	-2.291E+00	 3.012E+01	 3.796E+00	 3.495E-02	 1.032E-01	-5.026E-03	-2.019E-02	-1.445E-01	-4.391E-01	 3.915E+01	 2.894E+00	 3.715E+00	-4.978E+00	 1.132E-01	 4.050E+00	 3.648E+01	-4.902E+00	-4.901E+00
  12.860	 2.301E+02	-4.853E-01	 1.746E-01	-3.587E-02	 6.344E+01	-1.978E+00	 2.950E+01	 3.516E+00	 3.475E-02	 1.025E-01	-9.626E-03	-2.185E-02	-1.989E-01	 3.147E-01	 4.040E+01	-4.317E-01	 3.898E+00	-5.501E+00	-2.645E-01	 4.172E+00	 3.578E+01	-6.187E+00	-6.185E+00
  12.886	 2.385E+02	-3.297E-01	 1.762E-01	-3.682E-02	 6.554E+01	-2.643E+00	 2.879E+01	 3.684E+00	 3.442E-02	 1.021E-01	-1.570E-02	-9.390E-03	-2.566E-01	 5.063E-01	 4.165E+01	-1.235E+00	 4.111E+00	-5.787E+00	-2.585E-01	 4.228E+00	 3.616E+01	-6.275E+00	-6.272E+00
  12.912	 2.470E+02	-1.662E-01	 1.782E-01	-3.716E-02	 6.499E+01	-3.634E+00	 2.888E+01	 4.102E+00	 3.393E-02	 1.020E-01	-2.182E-02	-1.958E-03	-1.881E-01	 1.655E-03	 4.204E+01	-8.938E-01	 4.165E+00	-5.950E+00	-9.789E-02	 4.375E+00	 3.694E+01	-5.977E+00	-5.974E+00
  12.940	 2.561E+02	 1.579E-02	 1.807E-01	-3.747E-02	 6.361E+01	-4.155E+00	 2.935E+01	 4.314E+00	 3.327E-02	 1.019E-01	-2.440E-02	-9.677E-03	 1.434E-02	-4.565E-01	 4.199E+01	-1.182E+00	 4.138E+00	-6.111E+00	-7.919E-02	 4.547E+00	 3.721E+01	-5.904E+00	-5.900E+00
  12.966	 2.646E+02	 1.864E-01	 1.824E-01	-3.809E-02	 6.390E+01	-3.739E+00	 2.930E+01	 4.123E+00	 3.266E-02	 1.015E-01	-2.190E-02	-2.009E-02	 1.567E-01	-2.424E-01	 4.208E+01	-2.360E+00	 4.172E+00	-6.282E+00	-2.490E-01	 4.587E+00	 3.699E+01	-5.865E+00	-5.862E+00
  12.992	 2.731E+02	 3.535E-01	 1.831E-01	-3.875E-02	 6.503E+01	-2.902E+00	 2.890E+01	 3.815E+00	 3.214E-02	 1.009E-01	-1.766E-02	-1.985E-02	 1.467E-01	 2.445E-01	 4.222E+01	-3.279E+00	 4.254E+00	-6.403E+00	-4.033E-01	 4.523E+00	 3.695E+01	-5.397E+00	-5.394E+00
  13.020	 2.822E+02	 5.240E-01	 1.833E-01	-3.890E-02	 6.541E+01	-2.514E+00	 2.873E+01	 3.710E+00	 3.170E-02	 1.005E-01	-1.473E-02	-9.779E-03	 6.750E-02	 3.722E-01	 4.198E+01	-2.874E+00	 4.304E+00	-6.370E+00	-3.679E-01	 4.449E+00	 3.732E+01	-4.403E+00	-4.400E+00
  13.046	 2.907E+02	 6.684E-01	 1.828E-01	-3.832E-02	 6.505E+01	-2.838E+00	 2.888E+01	 3.794E+00	 3.133E-02	 1.003E-01	-1.301E-02	-3.620E-03	 8.683E-02	 6.258E-02	 4.144E+01	-1.438E+00	 4.319E+00	-6.179E+00	-1.926E-01	 4.414E+00	 3.765E+01	-3.368E+00	-3.366E+00
  13.072	 2.991E+02	 7.959E-01	 1.815E-01	-3.741E-02	 6.518E+01	-3.152E+00	 2.895E+01	 3.793E+00	 3.104E-02	 1.002E-01	-9.321E-03	-6.115E-03	 2.024E-01	-2.076E-01	 4.094E+01	 1.488E-01	 4.360E+00	-5.904E+00	-2.097E-02	 4.391E+00	 3.769E+01	-2.396E+00	-2.395E+00
  13.100	 3.082E+02	 9.118E-01	 1.795E-01	-3.650E-02	 6.604E+01	-2.837E+00	 2.900E+01	 3.615E+00	 3.087E-02	 9.997E-02	-2.230E-03	-1.166E-02	 2.854E-01	-1.249E-01	 4.057E+01	 1.622E+00	 4.450E+00	-5.575E+00	 9.091E-02	 4.369E+00	 3.758E+01	-1.341E+00	-1.341E+00
  13.126	 3.167E+02	 9.979E-01	 1.780E-01	-3.575E-02	 6.662E+01	-2.152E+00	 2.911E+01	 3.411E+00	 3.091E-02	 9.965E-02	 4.878E-03	-1.166E-02	 2.430E-01	 1.245E-01	 4.021E+01	 3.135E+00	 4.523E+00	-5.225E+00	 1.899E-01	 4.359E+00	 3.757E+01	-4.216E-01	-4.229E-01
  13.152	 3.252E+02	 1.062E+00	 1.773E-01	-3.486E-02	 6.626E+01	-1.576E+00	 2.917E+01	 3.283E+00	 3.110E-02	 9.941E-02	 9.897E-03	-6.518E-03	 1.422E-01	 2.280E-01	 3.975E+01	 5.201E+00	 4.565E+00	-4.791E+00	 3.606E-01	 4.348E+00	 3.765E+01	 2.233E-01	 2.211E-01
  13.180	 3.343E+02	 1.104E+00	 1.775E-01	-3.361E-02	 6.552E+01	-1.395E+00	 2.918E+01	 3.234E+00	 3.143E-02	 9.930E-02	 1.276E-02	-1.780E-03	 7.652E-02	 9.520E-02	 3.919E+01	 8.036E+00	 4.553E+00	-4.206E+00	 6.302E-01	 4.322E+00	 3.763E+01	 3.955E-01	 3.927E-01
  13.206	 3.428E+02	 1.119E+00	 1.780E-01	-3.234E-02	 6.531E+01	-1.285E+00	 2.927E+01	 3.228E+00	 3.178E-02	 9.927E-02	 1.443E-02	-1.999E-03	 5.693E-02	-1.040E-01	 3.856E+01	 1.087E+01	 4.464E+00	-3.573E+00	 8.933E-01	 4.285E+00	 3.740E+01	 1.225E-01	 1.192E-01
  13.232	 3.513E+02	 1.112E+00	 1.795E-01	-3.114E-02	 6.351E+01	 9.047E-01	 2.948E+01	 3.230E+00	 3.217E-02	 9.916E-02	 1.588E-02	-6.414E-03	 6.667E-02	-1.281E-01	 3.754E+01	 1.381E+01	 4.368E+00	-2.838E+00	 1.177E+00	 4.271E+00	 3.687E+01	-6.790E-01	-6.827E-01
  13.260	 3.880E-01	 1.085E+00	 1.784E-01	-2.847E-02	 5.660E+01	-4.604E-01	 3.090E+01	 3.582E+00	 3.263E-02	 9.894E-02	 1.595E-02	-1.037E-02	-6.001E-02	-2.339E-01	 3.496E+01	 1.708E+01	 4.131E+00	-2.161E+00	 1.434E+00	 4.240E+00	 3.611E+01	-1.768E+00	-1.772E+00
  13.286	 8.859E+00	 1.046E+00	 1.717E-01	-2.572E-02	 6.816E+01	-4.203E+00	 2.936E+01	 3.199E+00	 3.303E-02	 9.865E-02	 1.450E-02	-8.812E-03	-9.259E-02	 3.314E-01	 3.483E+01	 1.978E+01	 4.249E+00	-1.475E+00	 1.719E+00	 4.044E+00	 3.456E+01	-2.748E+00	-2.752E+00
  13.312	 1.733E+01	 9.697E-01	 1.627E-01	-2.507E-02	 7.180E+01	-1.181E+00	 2.761E+01	 2.466E+00	 3.336E-02	 9.857E-02	 1.038E-02	 3.051E-03	-2.044E-01	 4.719E-01	 3.622E+01	 2.069E+01	 4.829E+00	-1.200E+00	 1.663E+00	 3.717E+00	 3.528E+01	-2.010E+00	-2.012E+00
  13.340	 2.645E+01	 8.615E-01	 1.584E-01	-2.476E-02	 7.174E+01	 1.526E+00	 2.843E+01	 2.168E+00	 3.357E-02	 9.878E-02	 4.717E-03	 9.264E-03	-1.831E-01	-1.081E-01	 3.593E+01	 2.284E+01	 4.908E+00	-8.670E-01	 1.816E+00	 3.946E+00	 3.684E+01	-2.055E+00	-2.057E+00
  13.366	 3.492E+01	 7.405E-01	 1.598E-01	-2.349E-02	 6.667E+01	 1.507E+00	 3.007E+01	 2.425E+00	 3.364E-02	 9.892E-02	 8.151E-04	-2.214E-04	-1.173E-01	-5.093E-01	 3.489E+01	 2.591E+01	 4.726E+00	-3.044E-01	 2.117E+00	 4.352E+00	 3.704E+01	-3.538E+00	-3.538E+00
  13.394	 4.404E+01	 5.928E-01	 1.636E-01	-2.162E-02	 6.356E+01	-3.068E-01	 3.020E+01	 2.694E+00	 3.362E-02	 9.875E-02	-2.082E-03	-9.772E-03	-1.078E-01	-3.716E-02	 3.508E+01	 2.929E+01	 4.714E+00	 4.143E-01	 2.459E+00	 4.507E+00	 3.611E+01	-5.462E+00	-5.461E+00
  13.420	 5.250E+01	 4.435E-01	 1.674E-01	-2.076E-02	 6.459E+01	-8.954E-01	 2.915E+01	 2.591E+00	 3.352E-02	 9.856E-02	-5.774E-03	-1.735E-03	-1.817E-01	 5.860E-01	 3.637E+01	 3.138E+01	 4.911E+00	 8.840E-01	 2.639E+00	 4.407E+00	 3.576E+01	-6.289E+00	-6.287E+00
  13.446	 6.097E+01	 2.846E-01	 1.713E-01	-2.112E-02	 6.514E+01	 5.046E-01	 2.857E+01	 2.250E+00	 3.330E-02	 9.873E-02	-1.120E-02	 1.448E-02	-2.177E-01	 5.224E-01	 3.742E+01	 3.220E+01	 5.068E+00	 1.073E+00	 2.642E+00	 4.353E+00	 3.635E+01	-6.185E+00	-6.183E+00
  13.474	 7.009E+01	 1.056E-01	 1.752E-01	-2.185E-02	 6.381E+01	 2.188E+00	 2.908E+01	 1.983E+00	 3.291E-02	 9.926E-02	-1.604E-02	 2.030E-02	-1.002E-01	-1.260E-01	 3.770E+01	 3.252E+01	 5.060E+00	 1.160E+00	 2.574E+00	 4.461E+00	 3.708E+01	-5.921E+00	-5.917E+00
  13.500	 7.856E+01	-6.479E-02	 1.777E-01	-2.188E-02	 6.267E+01	 2.156E+00	 2.965E+01	 2.003E+00	 3.248E-02	 9.970E-02	-1.619E-02	 1.212E-02	 8.594E-02	-3.952E-01	 3.786E+01	 3.316E+01	 5.025E+00	 1.311E+00	 2.589E+00	 4.558E+00	 3.712E+01	-5.929E+00	-5.925E+00
  13.526	 8.703E+01	-2.351E-01	 1.782E-01	-2.129E-02	 6.308E+01	 9.247E-01	 2.960E+01	 2.195E+00	 3.210E-02	 9.991E-02	-1.243E-02	 5.212E-03	 1.776E-01	-6.152E-02	 3.837E+01	 3.418E+01	 5.049E+00	 1.499E+00	 2.703E+00	 4.547E+00	 3.689E+01	-5.795E+00	-5.791E+00
  13.554	 9.615E+01	-4.126E-01	 1.771E-01	-2.077E-02	 6.426E+01	-1.111E-01	 2.947E+01	 2.407E+00	 3.182E-02	 1.001E-01	-8.021E-03	 1.028E-02	 1.182E-01	 3.669E-01	 3.896E+01	 3.486E+01	 5.073E+00	 1.578E+00	 2.804E+00	 4.488E+00	 3.699E+01	-5.099E+00	-5.096E+00
  13.580	 1.046E+02	-5.666E-01	 1.758E-01	-2.092E-02	 6.467E+01	-7.122E-03	 2.972E+01	 2.490E+00	 3.164E-02	 1.005E-01	-5.961E-03	 1.990E-02	 5.371E-02	 2.908E-01	 3.919E+01	 3.440E+01	 5.021E+00	 1.454E+00	 2.750E+00	 4.468E+00	 3.739E+01	-4.094E+00	-4.092E+00
  13.606	 1.131E+02	-7.059E-01	 1.747E-01	-2.155E-02	 6.461E+01	 5.235E-01	 2.998E+01	 2.488E+00	 3.151E-02	 1.011E-01	-4.214E-03	 2.274E-02	 1.012E-01	-8.485E-02	 3.926E+01	 3.305E+01	 4.932E+00	 1.198E+00	 2.580E+00	 4.452E+00	 3.765E+01	-3.070E+00	-3.068E+00
  13.634	 1.222E+02	-8.359E-01	 1.740E-01	-2.226E-02	 6.455E+01	 5.181E-01	 2.996E+01	 2.545E+00	 3.145E-02	 1.016E-01	 3.189E-04	 1.649E-02	 2.198E-01	-2.946E-01	 3.946E+01	 3.137E+01	 4.849E+00	 8.917E-01	 2.400E+00	 4.375E+00	 3.760E+01	-2.025E+00	-2.024E+00
  13.660	 1.307E+02	-9.361E-01	 1.735E-01	-2.280E-02	 6.451E+01	-1.223E-01	 2.972E+01	 2.710E+00	 3.154E-02	 1.020E-01	 6.736E-03	 1.025E-02	 2.539E-01	-1.454E-01	 3.978E+01	 2.994E+01	 4.795E+00	 5.857E-01	 2.295E+00	 4.276E+00	 3.751E+01	-1.046E+00	-1.046E+00
  13.686	 1.392E+02	-1.015E+00	 1.730E-01	-2.340E-02	 6.436E+01	-7.471E-01	 2.954E+01	 2.899E+00	 3.179E-02	 1.022E-01	 1.254E-02	 9.439E-03	 1.783E-01	 6.706E-02	 4.007E+01	 2.832E+01	 4.736E+00	 2.121E-01	 2.194E+00	 4.215E+00	 3.754E+01	-1.841E-01	-1.858E-01
  13.714	 1.483E+02	-1.075E+00	 1.724E-01	-2.437E-02	 6.431E+01	-1.021E+00	 2.955E+01	 3.046E+00	 3.220E-02	 1.025E-01	 1.594E-02	 1.209E-02	 6.882E-02	 6.718E-02	 4.030E+01	 2.596E+01	 4.654E+00	-2.975E-01	 2.011E+00	 4.224E+00	 3.762E+01	 3.468E-01	 3.443E-01
  13.740	 1.568E+02	-1.106E+00	 1.715E-01	-2.553E-02	 6.445E+01	-1.025E+00	 2.953E+01	 3.131E+00	 3.263E-02	 1.028E-01	 1.705E-02	 1.180E-02	 2.289E-02	-1.120E-01	 4.052E+01	 2.321E+01	 4.578E+00	-8.489E-01	 1.767E+00	 4.260E+00	 3.757E+01	 3.699E-01	 3.668E-01
  13.766	 1.652E+02	-1.114E+00	 1.705E-01	-2.673E-02	 6.467E+01	-9.850E-01	 2.875E+01	 3.159E+00	 3.308E-02	 1.031E-01	 1.742E-02	 6.254E-03	 8.936E-03	-2.975E-01	 4.046E+01	 2.014E+01	 4.444E+00	-1.427E+00	 1.541E+00	 4.279E+00	 3.725E+01	-6.327E-02	-6.679E-02
  13.794	 1.744E+02	-1.100E+00	 1.685E-01	-2.790E-02	 6.446E+01	-1.015E+00	 2.169E+01	 3.489E+00	 3.357E-02	 1.031E-01	 1.763E-02	-2.534E-03	-1.500E-02	-2.552E-01	 3.946E+01	 1.673E+01	 4.193E+00	-2.064E+00	 1.537E+00	 4.644E+00	 3.678E+01	-8.680E-01	-8.718E-01
  13.820	 1.828E+02	-1.072E+00	 1.643E-01	-2.873E-02	 6.274E+01	-6.199E-01	 3.528E+01	 3.383E+00	 3.400E-02	 1.030E-01	 1.556E-02	-1.088E-02	-9.699E-02	-2.320E-01	 3.739E+01	 1.215E+01	 3.845E+00	-2.736E+00	 7.669E-01	 4.840E+00	 3.552E+01	-2.302E+00	-2.306E+00
  13.848	 1.920E+02	-1.017E+00	 1.592E-01	-2.941E-02	 6.683E+01	-1.878E+00	 3.043E+01	 3.087E+00	 3.440E-02	 1.027E-01	 1.204E-02	-8.475E-03	-1.947E-01	 3.063E-01	 3.919E+01	 9.317E+00	 4.163E+00	-3.237E+00	 4.779E-01	 4.068E+00	 3.457E+01	-2.557E+00	-2.560E+00
  13.876	 2.011E+02	-9.242E-01	 1.594E-01	-3.007E-02	 7.012E+01	-3.726E+00	 2.840E+01	 3.645E+00	 3.465E-02	 1.025E-01	 5.412E-03	 1.289E-05	-2.534E-01	 1.536E-01	 4.022E+01	 9.352E+00	 4.234E+00	-3.638E+00	 7.177E-01	 3.565E+00	 3.600E+01	-1.845E+00	-1.847E+00
  13.902	 2.095E+02	-8.165E-01	 1.640E-01	-3.139E-02	 6.504E+01	-3.418E+00	 2.889E+01	 4.034E+00	 3.471E-02	 1.025E-01	-5.700E-04	-4.044E-03	-1.978E-01	-4.662E-01	 3.964E+01	 7.822E+00	 3.999E+00	-4.167E+00	 6.737E-01	 3.623E+00	 3.713E+01	-2.483E+00	-2.484E+00
  13.928	 2.180E+02	-6.897E-01	 1.698E-01	-3.329E-02	 6.158E+01	-2.571E+00	 3.002E+01	 3.920E+00	 3.463E-02	 1.022E-01	-4.823E-03	-1.934E-02	-1.364E-01	-5.620E-01	 3.900E+01	 4.295E+00	 3.721E+00	-4.772E+00	 2.839E-01	 3.956E+00	 3.680E+01	-4.251E+00	-4.251E+00
  13.956	 2.271E+02	-5.379E-01	 1.737E-01	-3.533E-02	 6.253E+01	-1.971E+00	 2.984E+01	 3.574E+00	 3.445E-02	 1.015E-01	-8.682E-03	-2.632E-02	-1.583E-01	 1.328E-01	 3.985E+01	 3.899E-01	 3.803E+00	-5.355E+00	-1.821E-01	 4.149E+00	 3.590E+01	-5.905E+00	-5.903E+00
  13.982	 2.356E+02	-3.856E-01	 1.755E-01	-3.655E-02	 6.512E+01	-2.344E+00	 2.899E+01	 3.585E+00	 3.416E-02	 1.010E-01	-1.377E-02	-1.554E-02	-2.306E-01	 5.846E-01	 4.124E+01	-1.170E+00	 4.040E+00	-5.705E+00	-2.928E-01	 4.199E+00	 3.593E+01	-6.322E+00	-6.320E+00
  14.008	 2.441E+02	-2.243E-01	 1.772E-01	-3.704E-02	 6.547E+01	-3.315E+00	 2.879E+01	 3.966E+00	 3.372E-02	 1.007E-01	-1.987E-02	-3.084E-03	-2.140E-01	 2.636E-01	 4.193E+01	-1.007E+00	 4.149E+00	-5.898E+00	-1.481E-01	 4.312E+00	 3.669E+01	-6.064E+00	-6.061E+00
  14.036	 2.532E+02	-4.363E-02	 1.797E-01	-3.731E-02	 6.394E+01	-4.098E+00	 2.924E+01	 4.304E+00	 3.310E-02	 1.007E-01	-2.372E-02	-4.675E-03	-4.082E-02	-3.315E-01	 4.194E+01	-9.440E-01	 4.130E+00	-6.054E+00	-5.608E-02	 4.498E+00	 3.720E+01	-5.895E+00	-5.891E+00
  14.062	 2.617E+02	 1.272E-01	 1.817E-01	-3.782E-02	 6.363E+01	-3.973E+00	 2.940E+01	 4.228E+00	 3.249E-02	 1.004E-01	-2.232E-02	-1.486E-02	 1.363E-01	-3.383E-01	 4.196E+01	-1.908E+00	 4.135E+00	-6.222E+00	-1.788E-01	 4.585E+00	 3.707E+01	-5.912E+00	-5.908E+00
  14.088	 2.701E+02	 2.963E-01	 1.828E-01	-3.853E-02	 6.467E+01	-3.176E+00	 2.904E+01	 3.912E+00	 3.196E-02	 9.997E-02	-1.789E-02	-1.790E-02	 1.770E-01	 1.296E-01	 4.213E+01	-3.074E+00	 4.211E+00	-6.373E+00	-3.654E-01	 4.546E+00	 3.691E+01	-5.622E+00	-5.619E+00
  14.116	 2.792E+02	 4.707E-01	 1.831E-01	-3.891E-02	 6.544E+01	-2.545E+00	 2.876E+01	 3.718E+00	 3.152E-02	 9.958E-02	-1.393E-02	-8.728E-03	 9.891E-02	 4.338E-01	 4.205E+01	-3.174E+00	 4.282E+00	-6.401E+00	-4.031E-01	 4.464E+00	 3.716E+01	-4.754E+00	-4.751E+00
  14.142	 2.877E+02	 6.203E-01	 1.828E-01	-3.856E-02	 6.519E+01	-2.687E+00	 2.883E+01	 3.769E+00	 3.119E-02	 9.949E-02	-1.193E-02	 6.614E-04	 7.477E-02	 2.222E-01	 4.159E+01	-1.995E+00	 4.303E+00	-6.257E+00	-2.589E-01	 4.419E+00	 3.756E+01	-3.717E+00	-3.715E+00
  14.168	 2.962E+02	 7.539E-01	 1.818E-01	-3.771E-02	 6.505E+01	-3.091E+00	 2.894E+01	 3.814E+00	 3.091E-02	 9.954E-02	-8.965E-03	 1.646E-03	 1.669E-01	-1.225E-01	 4.105E+01	-3.771E-01	 4.331E+00	-6.003E+00	-7.323E-02	 4.396E+00	 3.770E+01	-2.729E+00	-2.727E+00
  14.196	 3.053E+02	 8.771E-01	 1.799E-01	-3.675E-02	 6.576E+01	-3.010E+00	 2.899E+01	 3.685E+00	 3.074E-02	 9.952E-02	-2.586E-03	-3.506E-03	 2.767E-01	-1.743E-01	 4.063E+01	 1.156E+00	 4.410E+00	-5.682E+00	 6.159E-02	 4.372E+00	 3.759E+01	-1.681E+00	-1.681E+00
  14.222	 3.138E+02	 9.705E-01	 1.783E-01	-3.599E-02	 6.652E+01	-2.403E+00	 2.908E+01	 3.481E+00	 3.077E-02	 9.939E-02	 4.817E-03	-5.348E-03	 2.716E-01	 5.229E-02	 4.031E+01	 2.557E+00	 4.496E+00	-5.353E+00	 1.491E-01	 4.358E+00	 3.754E+01	-7.199E-01	-7.209E-01
  14.248	 3.223E+02	 1.042E+00	 1.773E-01	-3.518E-02	 6.646E+01	-1.722E+00	 2.914E+01	 3.311E+00	 3.098E-02	 9.929E-02	 1.073E-02	-1.340E-03	 1.769E-01	 2.244E-01	 3.989E+01	 4.406E+00	 4.550E+00	-4.952E+00	 2.916E-01	 4.349E+00	 3.760E+01	 4.657E-02	 4.464E-02
  14.276	 3.314E+02	 1.093E+00	 1.773E-01	-3.403E-02	 6.573E+01	-1.406E+00	 2.921E+01	 3.251E+00	 3.134E-02	 9.934E-02	 1.426E-02	 4.372E-03	 8.601E-02	 1.412E-01	 3.933E+01	 7.074E+00	 4.548E+00	-4.402E+00	 5.359E-01	 4.328E+00	 3.764E+01	 3.936E-01	 3.909E-01
  14.302	 3.399E+02	 1.116E+00	 1.777E-01	-3.277E-02	 6.520E+01	-1.335E+00	 2.924E+01	 3.229E+00	 3.173E-02	 9.948E-02	 1.606E-02	 5.665E-03	 5.587E-02	-5.805E-02	 3.878E+01	 9.875E+00	 4.499E+00	-3.799E+00	 8.009E-01	 4.294E+00	 3.749E+01	 2.669E-01	 2.637E-01
  14.328	 3.483E+02	 1.116E+00	 1.787E-01	-3.155E-02	 6.762E+01	-7.335E-01	 2.953E+01	 3.309E+00	 3.217E-02	 9.959E-02	 1.741E-02	 1.904E-03	 5.024E-02	-2.306E-01	 3.781E+01	 1.281E+01	 4.327E+00	-3.085E+00	 1.062E+00	 4.271E+00	 3.705E+01	-4.123E-01	-4.158E-01
  14.356	 3.575E+02	 1.094E+00	 1.799E-01	-2.965E-02	 4.603E+01	 3.080E+00	 3.037E+01	 3.384E+00	 3.267E-02	 9.957E-02	 1.825E-02	-2.414E-03	-4.558E-02	-1.951E-01	 3.601E+01	 1.583E+01	 4.354E+00	-2.430E+00	 1.325E+00	 4.240E+00	 3.667E+01	-1.087E+00	-1.091E+00
  14.382	 5.927E+00	 1.063E+00	 1.747E-01	-2.642E-02	 6.396E+01	-4.092E+00	 2.992E+01	 3.372E+00	 3.313E-02	 9.944E-02	 1.675E-02	-5.841E-03	-5.729E-02	 1.660E-01	 3.467E+01	 1.919E+01	 4.127E+00	-1.682E+00	 1.693E+00	 4.173E+00	 3.495E+01	-2.657E+00	-2.661E+00
  14.410	 1.505E+01	 9.923E-01	 1.649E-01	-2.511E-02	 7.153E+01	-2.203E+00	 2.788E+01	 2.655E+00	 3.355E-02	 9.940E-02	 1.308E-02	 4.031E-03	-1.974E-01	 4.706E-01	 3.595E+01	 2.043E+01	 4.708E+00	-1.254E+00	 1.670E+00	 3.761E+00	 3.490E+01	-2.241E+00	-2.244E+00
  14.436	 2.352E+01	 8.982E-01	 1.591E-01	-2.495E-02	 7.243E+01	 9.385E-01	 2.787E+01	 2.181E+00	 3.382E-02	 9.964E-02	 7.447E-03	 1.263E-02	-2.139E-01	 8.493E-02	 3.627E+01	 2.198E+01	 4.951E+00	-1.001E+00	 1.738E+00	 3.814E+00	 3.642E+01	-1.862E+00	-1.863E+00
  14.462	 3.198E+01	 7.842E-01	 1.590E-01	-2.405E-02	 6.860E+01	 1.783E+00	 2.959E+01	 2.309E+00	 3.395E-02	 9.992E-02	 2.634E-03	 6.609E-03	-1.516E-01	-4.931E-01	 3.521E+01	 2.479E+01	 4.790E+00	-5.229E-01	 2.004E+00	 4.226E+00	 3.714E+01	-2.918E+00	-2.918E+00
  14.490	 4.110E+01	 6.418E-01	 1.624E-01	-2.219E-02	 6.391E+01	 2.978E-01	 3.035E+01	 2.640E+00	 3.397E-02	 9.990E-02	-8.425E-04	-7.028E-03	-1.103E-01	-3.112E-01	 3.488E+01	 2.828E+01	 4.696E+00	 1.923E-01	 2.356E+00	 4.497E+00	 3.643E+01	-4.916E+00	-4.916E+00
  14.516	 4.957E+01	 4.966E-01	 1.663E-01	-2.093E-02	 6.412E+01	-9.464E-01	 2.951E+01	 2.667E+00	 3.391E-02	 9.969E-02	-4.255E-03	-6.064E-03	-1.647E-01	 3.781E-01	 3.594E+01	 3.082E+01	 4.846E+00	 7.559E-01	 2.598E+00	 4.452E+00	 3.576E+01	-6.137E+00	-6.135E+00
  14.542	 5.804E+01	 3.410E-01	 1.701E-01	-2.091E-02	 6.515E+01	-1.296E-01	 2.861E+01	 2.375E+00	 3.373E-02	 9.971E-02	-9.534E-03	 8.352E-03	-2.314E-01	 5.961E-01	 3.721E+01	 3.204E+01	 5.045E+00	 1.033E+00	 2.658E+00	 4.358E+00	 3.608E+01	-6.286E+00	-6.283E+00
  14.570	 6.716E+01	 1.645E-01	 1.742E-01	-2.167E-02	 6.435E+01	 1.770E+00	 2.883E+01	 2.043E+00	 3.338E-02	 1.001E-01	-1.556E-02	 1.851E-02	-1.688E-01	 4.850E-02	 3.773E+01	 3.243E+01	 5.088E+00	 1.131E+00	 2.594E+00	 4.423E+00	 3.691E+01	-5.977E+00	-5.974E+00
  14.596	 7.563E+01	-4.650E-03	 1.773E-01	-2.198E-02	 6.291E+01	 2.345E+00	 2.950E+01	 1.969E+00	 3.293E-02	 1.006E-01	-1.770E-02	 1.271E-02	 1.213E-02	-4.094E-01	 3.784E+01	 3.289E+01	 5.045E+00	 1.250E+00	 2.572E+00	 4.542E+00	 3.717E+01	-5.911E+00	-5.907E+00
  14.622	 8.410E+01	-1.753E-01	 1.784E-01	-2.155E-02	 6.276E+01	 1.403E+00	 2.963E+01	 2.116E+00	 3.250E-02	 1.007E-01	-1.528E-02	 2.747E-03	 1.547E-01	-2.523E-01	 3.824E+01	 3.382E+01	 5.049E+00	 1.438E+00	 2.658E+00	 4.567E+00	 3.696E+01	-5.880E+00	-5.877E+00
  14.650	 9.322E+01	-3.553E-01	 1.778E-01	-2.090E-02	 6.390E+01	 9.903E-02	 2.946E+01	 2.347E+00	 3.213E-02	 1.008E-01	-1.075E-02	 2.787E-03	 1.413E-01	 2.444E-01	 3.886E+01	 3.475E+01	 5.082E+00	 1.575E+00	 2.785E+00	 4.510E+00	 3.691E+01	-5.378E+00	-5.375E+00
  14.676	 1.017E+02	-5.134E-01	 1.765E-01	-2.083E-02	 6.458E+01	-1.416E-01	 2.960E+01	 2.473E+00	 3.189E-02	 1.010E-01	-8.180E-03	 1.166E-02	 6.077E-02	 3.493E-01	 3.919E+01	 3.469E+01	 5.056E+00	 1.516E+00	 2.785E+00	 4.475E+00	 3.725E+01	-4.455E+00	-4.452E+00
  14.702	 1.102E+02	-6.583E-01	 1.753E-01	-2.133E-02	 6.464E+01	 3.575E-01	 2.988E+01	 2.486E+00	 3.170E-02	 1.014E-01	-6.815E-03	 1.721E-02	 6.587E-02	 3.344E-02	 3.927E+01	 3.358E+01	 4.972E+00	 1.293E+00	 2.645E+00	 4.465E+00	 3.760E+01	-3.414E+00	-3.411E+00
  14.730	 1.193E+02	-7.954E-01	 1.743E-01	-2.206E-02	 6.455E+01	 6.073E-01	 3.001E+01	 2.512E+00	 3.155E-02	 1.018E-01	-3.472E-03	 1.303E-02	 1.809E-01	-2.812E-01	 3.940E+01	 3.190E+01	 4.879E+00	 9.900E-01	 2.450E+00	 4.410E+00	 3.765E+01	-2.363E+00	-2.362E+00
  14.756	 1.278E+02	-9.028E-01	 1.737E-01	-2.263E-02	 6.454E+01	 1.249E-01	 2.982E+01	 2.644E+00	 3.153E-02	 1.020E-01	 2.410E-03	 5.719E-03	 2.552E-01	-2.249E-01	 3.969E+01	 3.044E+01	 4.818E+00	 6.958E-01	 2.327E+00	 4.312E+00	 3.755E+01	-1.384E+00	-1.384E+00
  14.782	 1.362E+02	-9.898E-01	 1.732E-01	-2.318E-02	 6.444E+01	-5.596E-01	 2.958E+01	 2.832E+00	 3.168E-02	 1.021E-01	 8.773E-03	 2.883E-03	 2.154E-01	 9.584E-03	 3.999E+01	 2.893E+01	 4.762E+00	 3.504E-01	 2.234E+00	 4.230E+00	 3.753E+01	-4.586E-01	-4.598E-01
  14.810	 1.454E+02	-1.059E+00	 1.726E-01	-2.403E-02	 6.428E+01	-9.799E-01	 2.958E+01	 3.012E+00	 3.199E-02	 1.023E-01	 1.328E-02	 5.265E-03	 1.055E-01	 1.162E-01	 4.025E+01	 2.681E+01	 4.689E+00	-1.225E-01	 2.080E+00	 4.216E+00	 3.762E+01	 2.390E-01	 2.367E-01
  14.836	 1.538E+02	-1.098E+00	 1.718E-01	-2.511E-02	 6.431E+01	-9.899E-01	 2.963E+01	 3.102E+00	 3.236E-02	 1.024E-01	 1.500E-02	 6.645E-03	 4.001E-02	-2.090E-02	 4.046E+01	 2.420E+01	 4.614E+00	-6.511E-01	 1.855E+00	 4.247E+00	 3.761E+01	 4.001E-01	 3.972E-01
  14.864	 1.630E+02	-1.114E+00	 1.708E-01	-2.641E-02	 6.471E+01	-1.059E+00	 2.904E+01	 3.175E+00	 3.279E-02	 1.026E-01	 1.574E-02	 2.999E-03	 1.770E-02	-2.443E-01	 4.049E+01	 2.100E+01	 4.476E+00	-1.275E+00	 1.592E+00	 4.272E+00	 3.739E+01	 9.958E-02	 9.617E-02
  14.892	 1.721E+02	-1.106E+00	 1.690E-01	-2.763E-02	 6.415E+01	-8.649E-01	 2.214E+01	 3.342E+00	 3.324E-02	 1.025E-01	 1.620E-02	-5.348E-03	 2.314E-02	-2.407E-01	 3.998E+01	 1.750E+01	 4.323E+00	-1.906E+00	 1.552E+00	 4.488E+00	 3.683E+01	-7.457E-01	-7.494E-01
  14.918	 1.806E+02	-1.080E+00	 1.659E-01	-2.849E-02	 6.443E+01	-1.231E+00	 3.391E+01	 3.701E+00	 3.366E-02	 1.023E-01	 1.508E-02	-1.244E-02	-9.249E-02	-3.577E-01	 3.712E+01	 1.360E+01	 3.690E+00	-2.572E+00	 1.043E+00	 4.982E+00	 3.607E+01	-1.859E+00	-1.863E+00
  14.944	 1.890E+02	-1.041E+00	 1.602E-01	-2.923E-02	 6.425E+01	-1.104E+00	 3.126E+01	 3.067E+00	 3.402E-02	 1.019E-01	 1.268E-02	-1.371E-02	-1.353E-01	 2.117E-01	 3.860E+01	 9.628E+00	 4.099E+00	-3.117E+00	 4.556E-01	 4.306E+00	 3.456E+01	-2.752E+00	-2.755E+00
  14.972	 1.981E+02	-9.574E-01	 1.588E-01	-2.979E-02	 7.045E+01	-3.444E+00	 2.880E+01	 3.448E+00	 3.430E-02	 1.017E-01	 7.112E-03	-4.144E-03	-2.416E-01	 3.322E-01	 4.007E+01	 9.430E+00	 4.231E+00	-3.492E+00	 6.564E-01	 3.672E+00	 3.545E+01	-1.959E+00	-1.961E+00
  14.998	 2.066E+02	-8.565E-01	 1.621E-01	-3.085E-02	 6.698E+01	-3.634E+00	 2.855E+01	 3.959E+00	 3.441E-02	 1.016E-01	 1.037E-03	-1.982E-03	-2.104E-01	-2.293E-01	 3.993E+01	 8.615E+00	 4.105E+00	-3.970E+00	 7.333E-01	 3.555E+00	 3.690E+01	-2.087E+00	-2.088E+00
  15.024	 2.151E+02	-7.357E-01	 1.679E-01	-3.260E-02	 6.230E+01	-2.865E+00	 2.974E+01	 4.013E+00	 3.437E-02	 1.014E-01	-3.523E-03	-1.425E-02	-1.416E-01	-5.930E-01	 3.907E+01	 5.657E+00	 3.780E+00	-4.561E+00	 4.446E-01	 3.849E+00	 3.705E+01	-3.585E+00	-3.585E+00
  15.052	 2.242E+02	-5.882E-01	 1.727E-01	-3.472E-02	 6.181E+01	-2.081E+00	 3.007E+01	 3.674E+00	 3.422E-02	 1.009E-01	-7.036E-03	-2.561E-02	-1.282E-01	-8.740E-02	 3.940E+01	 1.474E+00	 3.731E+00	-5.185E+00	-5.825E-02	 4.114E+00	 3.613E+01	-5.488E+00	-5.487E+00
  15.078	 2.327E+02	-4.393E-01	 1.748E-01	-3.620E-02	 6.436E+01	-2.122E+00	 2.927E+01	 3.534E+00	 3.399E-02	 1.002E-01	-1.119E-02	-1.883E-02	-1.978E-01	 5.446E-01	 4.076E+01	-8.825E-01	 3.955E+00	-5.604E+00	-2.940E-01	 4.178E+00	 3.579E+01	-6.290E+00	-6.288E+00
  15.104	 2.411E+02	-2.806E-01	 1.764E-01	-3.691E-02	 6.568E+01	-2.967E+00	 2.876E+01	 3.821E+00	 3.363E-02	 9.995E-02	-1.696E-02	-3.841E-03	-2.266E-01	 4.722E-01	 4.174E+01	-1.137E+00	 4.119E+00	-5.841E+00	-2.059E-01	 4.257E+00	 3.641E+01	-6.172E+00	-6.170E+00
  15.132	 2.503E+02	-1.018E-01	 1.787E-01	-3.718E-02	 6.443E+01	-3.933E+00	 2.910E+01	 4.240E+00	 3.307E-02	 9.995E-02	-2.192E-02	 8.324E-04	-1.003E-01	-1.535E-01	 4.191E+01	-8.502E-01	 4.128E+00	-6.002E+00	-6.145E-02	 4.435E+00	 3.712E+01	-5.913E+00	-5.910E+00
  15.158	 2.587E+02	 6.860E-02	 1.809E-01	-3.757E-02	 6.355E+01	-4.126E+00	 2.944E+01	 4.302E+00	 3.249E-02	 9.987E-02	-2.201E-02	-7.592E-03	 9.194E-02	-3.872E-01	 4.187E+01	-1.492E+00	 4.114E+00	-6.161E+00	-1.188E-01	 4.564E+00	 3.715E+01	-5.918E+00	-5.914E+00
  15.184	 2.672E+02	 2.389E-01	 1.822E-01	-3.826E-02	 6.432E+01	-3.479E+00	 2.918E+01	 4.024E+00	 3.196E-02	 9.957E-02	-1.804E-02	-1.381E-02	 1.867E-01	-2.609E-02	 4.202E+01	-2.739E+00	 4.171E+00	-6.328E+00	-3.089E-01	 4.561E+00	 3.692E+01	-5.784E+00	-5.781E+00
  15.212	 2.763E+02	 4.165E-01	 1.828E-01	-3.884E-02	 6.534E+01	-2.669E+00	 2.882E+01	 3.754E+00	 3.153E-02	 9.925E-02	-1.334E-02	-7.572E-03	 1.314E-01	 4.107E-01	 4.208E+01	-3.315E+00	 4.258E+00	-6.411E+00	-4.158E-01	 4.481E+00	 3.703E+01	-5.084E+00	-5.081E+00
  15.238	 2.848E+02	 5.707E-01	 1.828E-01	-3.873E-02	 6.534E+01	-2.573E+00	 2.880E+01	 3.743E+00	 3.122E-02	 9.919E-02	-1.086E-02	 3.299E-03	 7.181E-02	 3.425E-01	 4.173E+01	-2.500E+00	 4.292E+00	-6.322E+00	-3.204E-01	 4.426E+00	 3.743E+01	-4.080E+00	-4.078E+00
  15.264	 2.933E+02	 7.101E-01	 1.821E-01	-3.801E-02	 6.500E+01	-2.960E+00	 2.891E+01	 3.810E+00	 3.096E-02	 9.936E-02	-8.541E-03	 7.571E-03	 1.264E-01	-1.905E-02	 4.119E+01	-9.405E-01	 4.312E+00	-6.098E+00	-1.345E-01	 4.400E+00	 3.767E+01	-3.064E+00	-3.062E+00
  15.292	 3.024E+02	 8.403E-01	 1.805E-01	-3.703E-02	 6.546E+01	-3.118E+00	 2.897E+01	 3.749E+00	 3.079E-02	 9.952E-02	-3.250E-03	 3.506E-03	 2.486E-01	-2.045E-01	 4.073E+01	 6.782E-01	 4.378E+00	-5.788E+00	 2.525E-02	 4.377E+00	 3.762E+01	-2.018E+00	-2.018E+00
  15.318	 3.109E+02	 9.407E-01	 1.788E-01	-3.625E-02	 6.629E+01	-2.639E+00	 2.905E+01	 3.555E+00	 3.080E-02	 9.956E-02	 3.927E-03	-2.304E-04	 2.839E-01	-4.281E-02	 4.043E+01	 2.031E+00	 4.470E+00	-5.473E+00	 1.151E-01	 4.361E+00	 3.754E+01	-1.035E+00	-1.036E+00
  15.344	 3.193E+02	 1.020E+00	 1.776E-01	-3.548E-02	 6.654E+01	-1.917E+00	 2.911E+01	 3.356E+00	 3.099E-02	 9.956E-02	 1.051E-02	 1.743E-03	 2.092E-01	 1.742E-01	 4.005E+01	 3.690E+00	 4.536E+00	-5.101E+00	 2.324E-01	 4.354E+00	 3.757E+01	-1.761E-01	-1.777E-01
  15.372	 3.285E+02	 1.080E+00	 1.773E-01	-3.443E-02	 6.593E+01	-1.450E+00	 2.920E+01	 3.263E+00	 3.135E-02	 9.969E-02	 1.480E-02	 7.369E-03	 1.012E-01	 1.720E-01	 3.953E+01	 6.149E+00	 4.556E+00	-4.590E+00	 4.475E-01	 4.340E+00	 3.763E+01	 3.473E-01	 3.448E-01
  15.398	 3.369E+02	 1.110E+00	 1.776E-01	-3.322E-02	 6.531E+01	-1.380E+00	 2.919E+01	 3.232E+00	 3.176E-02	 9.993E-02	 1.677E-02	 9.859E-03	 5.716E-02	 3.805E-03	 3.903E+01	 8.888E+00	 4.549E+00	-4.021E+00	 7.078E-01	 4.309E+00	 3.757E+01	 3.672E-01	 3.642E-01
  15.426	 3.460E+02	 1.117E+00	 1.784E-01	-3.187E-02	 6.585E+01	-1.075E+00	 2.938E+01	 3.232E+00	 3.225E-02	 1.002E-01	 1.808E-02	 6.719E-03	 3.974E-02	-2.040E-01	 3.821E+01	 1.198E+01	 4.409E+00	-3.296E+00	 9.953E-01	 4.277E+00	 3.720E+01	-1.325E-01	-1.360E-01
  15.452	 3.545E+02	 1.103E+00	 1.804E-01	-3.055E-02	 4.797E+01	 3.726E+00	 2.963E+01	 3.170E+00	 3.273E-02	 1.003E-01	 1.905E-02	 1.345E-03	 1.660E-02	-1.030E-01	 3.706E+01	 1.482E+01	 4.468E+00	-2.613E+00	 1.276E+00	 4.260E+00	 3.676E+01	-8.260E-01	-8.297E-01
  15.478	 2.995E+00	 1.075E+00	 1.771E-01	-2.743E-02	 5.830E+01	-2.699E+00	 3.067E+01	 3.540E+00	 3.322E-02	 1.002E-01	 1.773E-02	-4.268E-03	-6.422E-02	-1.484E-01	 3.459E+01	 1.822E+01	 4.020E+00	-1.907E+00	 1.581E+00	 4.238E+00	 3.549E+01	-2.364E+00	-2.368E+00
  15.506	 1.212E+01	 1.018E+00	 1.683E-01	-2.531E-02	 7.025E+01	-3.364E+00	 2.847E+01	 2.906E+00	 3.368E-02	 1.002E-01	 1.496E-02	 1.040E-03	-1.686E-01	 4.018E-01	 3.547E+01	 2.016E+01	 4.500E+00	-1.334E+00	 1.699E+00	 3.879E+00	 3.457E+01	-2.542E+00	-2.545E+00
  15.532	 2.058E+01	 9.316E-01	 1.608E-01	-2.508E-02	 7.232E+01	 9.123E-02	 2.752E+01	 2.267E+00	 3.400E-02	 1.003E-01	 9.425E-03	 1.132E-02	-2.322E-01	 2.609E-01	 3.647E+01	 2.126E+01	 4.950E+00	-1.109E+00	 1.683E+00	 3.732E+00	 3.589E+01	-1.844E+00	-1.847E+00
  15.558	 2.905E+01	 8.243E-01	 1.589E-01	-2.453E-02	 7.043E+01	 1.785E+00	 2.898E+01	 2.212E+00	 3.417E-02	 1.006E-01	 3.881E-03	 1.004E-02	-1.839E-01	-3.712E-01	 3.566E+01	 2.373E+01	 4.869E+00	-7.176E-01	 1.899E+00	 4.086E+00	 3.708E+01	-2.408E+00	-2.409E+00
  15.586	 3.817E+01	 6.875E-01	 1.614E-01	-2.284E-02	 6.484E+01	 9.205E-01	 3.032E+01	 2.552E+00	 3.422E-02	 1.007E-01	-3.146E-04	-4.661E-03	-1.226E-01	-5.089E-01	 3.486E+01	 2.719E+01	 4.710E+00	-4.192E-02	 2.245E+00	 4.459E+00	 3.676E+01	-4.298E+00	-4.298E+00
  15.612	 4.664E+01	 5.461E-01	 1.651E-01	-2.126E-02	 6.373E+01	-7.332E-01	 2.988E+01	 2.704E+00	 3.417E-02	 1.005E-01	-3.601E-03	-1.044E-02	-1.464E-01	 1.224E-01	 3.554E+01	 3.010E+01	 4.786E+00	 5.913E-01	 2.535E+00	 4.497E+00	 3.590E+01	-5.857E+00	-5.856E+00
  15.638	 5.511E+01	 3.940E-01	 1.689E-01	-2.079E-02	 6.494E+01	-6.390E-01	 2.880E+01	 2.496E+00	 3.402E-02	 1.003E-01	-8.431E-03	 2.317E-04	-2.242E-01	 5.935E-01	 3.688E+01	 3.177E+01	 4.998E+00	 9.689E-01	 2.658E+00	 4.383E+00	 3.587E+01	-6.338E+00	-6.336E+00
  15.666	 6.423E+01	 2.202E-01	 1.730E-01	-2.144E-02	 6.482E+01	 1.210E+00	 2.863E+01	 2.128E+00	 3.369E-02	 1.006E-01	-1.497E-02	 1.386E-02	-2.145E-01	 2.491E-01	 3.769E+01	 3.234E+01	 5.100E+00	 1.105E+00	 2.618E+00	 4.387E+00	 3.668E+01	-6.070E+00	-6.067E+00
  15.692	 7.270E+01	 5.251E-02	 1.765E-01	-2.198E-02	 6.334E+01	 2.344E+00	 2.930E+01	 1.963E+00	 3.324E-02	 1.009E-01	-1.875E-02	 1.228E-02	-5.925E-02	-3.292E-01	 3.781E+01	 3.267E+01	 5.061E+00	 1.198E+00	 2.567E+00	 4.507E+00	 3.716E+01	-5.907E+00	-5.903E+00
  15.718	 8.117E+01	-1.181E-01	 1.783E-01	-2.177E-02	 6.261E+01	 1.850E+00	 2.963E+01	 2.045E+00	 3.276E-02	 1.011E-01	-1.785E-02	 1.472E-03	 1.178E-01	-3.884E-01	 3.807E+01	 3.346E+01	 5.044E+00	 1.370E+00	 2.616E+00	 4.570E+00	 3.706E+01	-5.924E+00	-5.920E+00
  15.746	 9.029E+01	-3.000E-01	 1.782E-01	-2.108E-02	 6.353E+01	 4.285E-01	 2.951E+01	 2.278E+00	 3.231E-02	 1.011E-01	-1.351E-02	-3.214E-03	 1.604E-01	 9.076E-02	 3.868E+01	 3.453E+01	 5.076E+00	 1.550E+00	 2.752E+00	 4.529E+00	 3.688E+01	-5.613E+00	-5.610E+00
  15.772	 9.876E+01	-4.618E-01	 1.769E-01	-2.078E-02	 6.446E+01	-1.920E-01	 2.953E+01	 2.446E+00	 3.201E-02	 1.010E-01	-1.026E-02	 3.788E-03	 8.348E-02	 3.683E-01	 3.912E+01	 3.485E+01	 5.075E+00	 1.559E+00	 2.804E+00	 4.483E+00	 3.712E+01	-4.812E+00	-4.809E+00
  15.798	 1.072E+02	-6.117E-01	 1.756E-01	-2.111E-02	 6.469E+01	 1.622E-01	 2.978E+01	 2.488E+00	 3.176E-02	 1.013E-01	-8.779E-03	 1.166E-02	 4.919E-02	 1.681E-01	 3.926E+01	 3.406E+01	 5.006E+00	 1.382E+00	 2.706E+00	 4.472E+00	 3.752E+01	-3.772E+00	-3.769E+00
  15.826	 1.164E+02	-7.555E-01	 1.746E-01	-2.184E-02	 6.458E+01	 6.145E-01	 3.002E+01	 2.494E+00	 3.155E-02	 1.016E-01	-6.335E-03	 1.073E-02	 1.426E-01	-2.111E-01	 3.934E+01	 3.245E+01	 4.907E+00	 1.088E+00	 2.509E+00	 4.437E+00	 3.768E+01	-2.699E+00	-2.698E+00
  15.852	 1.248E+02	-8.697E-01	 1.739E-01	-2.245E-02	 6.455E+01	 3.529E-01	 2.993E+01	 2.591E+00	 3.144E-02	 1.018E-01	-1.147E-03	 3.660E-03	 2.449E-01	-2.713E-01	 3.958E+01	 3.093E+01	 4.834E+00	 8.028E-01	 2.363E+00	 4.349E+00	 3.758E+01	-1.724E+00	-1.724E+00
  15.880	 1.339E+02	-9.702E-01	 1.734E-01	-2.303E-02	 6.446E+01	-3.942E-01	 2.965E+01	 2.785E+00	 3.151E-02	 1.018E-01	 5.998E-03	-9.811E-04	 2.416E-01	-3.683E-02	 3.992E+01	 2.937E+01	 4.776E+00	 4.515E-01	 2.261E+00	 4.248E+00	 3.753E+01	-6.905E-01	-6.914E-01
  15.908	 1.431E+02	-1.046E+00	 1.729E-01	-2.379E-02	 6.426E+01	-9.177E-01	 2.959E+01	 2.980E+00	 3.176E-02	 1.018E-01	 1.141E-02	 8.702E-04	 1.388E-01	 1.354E-01	 4.019E+01	 2.741E+01	 4.707E+00	 7.222E-03	 2.127E+00	 4.213E+00	 3.761E+01	 1.080E-01	 1.060E-01
  15.934	 1.515E+02	-1.092E+00	 1.721E-01	-2.481E-02	 6.430E+01	-1.001E+00	 2.959E+01	 3.077E+00	 3.210E-02	 1.019E-01	 1.381E-02	 3.603E-03	 5.689E-02	 4.427E-02	 4.038E+01	 2.495E+01	 4.623E+00	-5.040E-01	 1.922E+00	 4.237E+00	 3.763E+01	 3.941E-01	 3.913E-01
  15.960	 1.600E+02	-1.114E+00	 1.712E-01	-2.600E-02	 6.459E+01	-9.950E-01	 2.945E+01	 3.136E+00	 3.247E-02	 1.020E-01	 1.487E-02	 2.358E-03	 2.750E-02	-1.543E-01	 4.054E+01	 2.207E+01	 4.529E+00	-1.067E+00	 1.673E+00	 4.270E+00	 3.749E+01	 2.597E-01	 2.564E-01
  15.988	 1.691E+02	-1.112E+00	 1.697E-01	-2.725E-02	 6.460E+01	-1.016E+00	 2.557E+01	 3.224E+00	 3.290E-02	 1.019E-01	 1.555E-02	-4.443E-03	 2.909E-02	-2.997E-01	 4.009E+01	 1.856E+01	 4.325E+00	-1.715E+00	 1.524E+00	 4.363E+00	 3.699E+01	-5.080E-01	-5.117E-01
  16.014	 1.776E+02	-1.091E+00	 1.673E-01	-2.820E-02	 6.509E+01	-1.379E+00	 2.821E+01	 3.836E+00	 3.331E-02	 1.017E-01	 1.563E-02	-1.039E-02	-6.328E-02	-2.683E-01	 3.814E+01	 1.546E+01	 3.879E+00	-2.315E+00	 1.346E+00	 4.897E+00	 3.668E+01	-1.138E+00	-1.142E+00
  16.038	 1.854E+02	-1.063E+00	 1.622E-01	-2.895E-02	 6.176E+01	-4.656E-01	 3.319E+01	 3.251E+00	 3.366E-02	 1.014E-01	 1.374E-02	-1.575E-02	-7.201E-02	 6.323E-02	 3.802E+01	 1.077E+01	 4.045E+00	-2.927E+00	 5.506E-01	 4.641E+00	 3.505E+01	-2.629E+00	-2.633E+00
  16.064	 1.939E+02	-1.001E+00	 1.586E-01	-2.949E-02	 6.851E+01	-2.486E+00	 2.985E+01	 3.183E+00	 3.398E-02	 1.011E-01	 1.021E-02	-8.889E-03	-2.023E-01	 4.113E-01	 3.950E+01	 9.323E+00	 4.181E+00	-3.313E+00	 5.283E-01	 3.922E+00	 3.477E+01	-2.345E+00	-2.348E+00
  16.088	 2.017E+02	-9.179E-01	 1.595E-01	-3.012E-02	 6.993E+01	-3.764E+00	 2.839E+01	 3.699E+00	 3.416E-02	 1.010E-01	 4.765E-03	-6.493E-04	-2.328E-01	 1.727E-01	 4.016E+01	 9.327E+00	 4.212E+00	-3.672E+00	 7.303E-01	 3.552E+00	 3.612E+01	-1.824E+00	-1.827E+00
  16.112	 2.095E+02	-8.174E-01	 1.638E-01	-3.136E-02	 6.506E+01	-3.409E+00	 2.891E+01	 4.042E+00	 3.421E-02	 1.009E-01	-2.518E-04	-3.547E-03	-1.797E-01	-4.037E-01	 3.958E+01	 7.822E+00	 3.984E+00	-4.165E+00	 6.731E-01	 3.624E+00	 3.712E+01	-2.475E+00	-2.476E+00
  16.138	 2.180E+02	-6.903E-01	 1.696E-01	-3.326E-02	 6.155E+01	-2.578E+00	 3.007E+01	 3.928E+00	 3.415E-02	 1.007E-01	-4.035E-03	-1.731E-02	-1.179E-01	-5.070E-01	 3.893E+01	 4.297E+00	 3.703E+00	-4.771E+00	 2.847E-01	 3.954E+00	 3.679E+01	-4.250E+00	-4.250E+00
  16.162	 2.258E+02	-5.606E-01	 1.731E-01	-3.504E-02	 6.215E+01	-2.003E+00	 2.999E+01	 3.618E+00	 3.402E-02	 1.002E-01	-6.860E-03	-2.327E-02	-1.319E-01	 7.307E-02	 3.957E+01	 8.347E-01	 3.753E+00	-5.281E+00	-1.327E-01	 4.131E+00	 3.598E+01	-5.740E+00	-5.739E+00
  16.186	 2.336E+02	-4.215E-01	 1.748E-01	-3.631E-02	 6.465E+01	-2.182E+00	 2.918E+01	 3.548E+00	 3.381E-02	 9.968E-02	-1.085E-02	-1.431E-02	-2.021E-01	 5.960E-01	 4.087E+01	-1.014E+00	 3.973E+00	-5.640E+00	-2.986E-01	 4.179E+00	 3.582E+01	-6.316E+00	-6.314E+00
  16.210	 2.415E+02	-2.743E-01	 1.763E-01	-3.691E-02	 6.570E+01	-3.012E+00	 2.877E+01	 3.843E+00	 3.349E-02	 9.952E-02	-1.615E-02	-8.457E-05	-2.223E-01	 4.745E-01	 4.174E+01	-1.129E+00	 4.118E+00	-5.847E+00	-1.998E-01	 4.259E+00	 3.643E+01	-6.161E+00	-6.159E+00
  16.236	 2.499E+02	-1.081E-01	 1.785E-01	-3.715E-02	 6.451E+01	-3.914E+00	 2.908E+01	 4.233E+00	 3.300E-02	 9.961E-02	-2.070E-02	 4.653E-03	-1.041E-01	-1.191E-01	 4.189E+01	-8.426E-01	 4.126E+00	-5.995E+00	-6.235E-02	 4.427E+00	 3.709E+01	-5.917E+00	-5.913E+00
  16.260	 2.577E+02	 4.900E-02	 1.806E-01	-3.749E-02	 6.359E+01	-4.147E+00	 2.941E+01	 4.313E+00	 3.249E-02	 9.965E-02	-2.106E-02	-2.489E-03	 7.458E-02	-3.873E-01	 4.184E+01	-1.363E+00	 4.108E+00	-6.140E+00	-1.008E-01	 4.554E+00	 3.716E+01	-5.917E+00	-5.913E+00
  16.286	 2.662E+02	 2.196E-01	 1.821E-01	-3.816E-02	 6.416E+01	-3.584E+00	 2.925E+01	 4.071E+00	 3.199E-02	 9.947E-02	-1.735E-02	-9.700E-03	 1.854E-01	-8.362E-02	 4.199E+01	-2.605E+00	 4.160E+00	-6.310E+00	-2.867E-01	 4.568E+00	 3.693E+01	-5.823E+00	-5.820E+00
  16.310	 2.740E+02	 3.732E-01	 1.827E-01	-3.874E-02	 6.515E+01	-2.823E+00	 2.891E+01	 3.806E+00	 3.162E-02	 9.926E-02	-1.308E-02	-6.298E-03	 1.527E-01	 3.412E-01	 4.210E+01	-3.322E+00	 4.241E+00	-6.406E+00	-4.111E-01	 4.502E+00	 3.695E+01	-5.311E+00	-5.308E+00
  16.334	 2.819E+02	 5.190E-01	 1.829E-01	-3.885E-02	 6.544E+01	-2.516E+00	 2.877E+01	 3.724E+00	 3.135E-02	 9.923E-02	-1.035E-02	 3.729E-03	 7.981E-02	 4.189E-01	 4.189E+01	-2.924E+00	 4.285E+00	-6.372E+00	-3.730E-01	 4.441E+00	 3.728E+01	-4.443E+00	-4.440E+00
  16.358	 2.897E+02	 6.532E-01	 1.825E-01	-3.837E-02	 6.508E+01	-2.777E+00	 2.887E+01	 3.789E+00	 3.112E-02	 9.941E-02	-8.588E-03	 1.078E-02	 8.531E-02	 1.323E-01	 4.142E+01	-1.638E+00	 4.302E+00	-6.205E+00	-2.153E-01	 4.409E+00	 3.760E+01	-3.482E+00	-3.480E+00
  16.384	 2.981E+02	 7.825E-01	 1.814E-01	-3.748E-02	 6.511E+01	-3.128E+00	 2.895E+01	 3.803E+00	 3.093E-02	 9.970E-02	-5.105E-03	 9.642E-03	 1.911E-01	-1.795E-01	 4.092E+01	-3.661E-02	 4.343E+00	-5.936E+00	-3.859E-02	 4.388E+00	 3.767E+01	-2.503E+00	-2.502E+00
  16.408	 3.060E+02	 8.851E-01	 1.798E-01	-3.668E-02	 6.580E+01	-2.962E+00	 2.898E+01	 3.668E+00	 3.088E-02	 9.987E-02	 6.151E-04	 4.710E-03	 2.740E-01	-1.805E-01	 4.061E+01	 1.244E+00	 4.419E+00	-5.658E+00	 6.716E-02	 4.369E+00	 3.757E+01	-1.599E+00	-1.599E+00
  16.434	 3.144E+02	 9.765E-01	 1.782E-01	-3.594E-02	 6.651E+01	-2.334E+00	 2.907E+01	 3.462E+00	 3.099E-02	 9.995E-02	 7.790E-03	 2.748E-03	 2.572E-01	 4.461E-02	 4.029E+01	 2.665E+00	 4.506E+00	-5.325E+00	 1.559E-01	 4.358E+00	 3.753E+01	-6.426E-01	-6.437E-01
  16.458	 3.223E+02	 1.042E+00	 1.774E-01	-3.519E-02	 6.645E+01	-1.724E+00	 2.916E+01	 3.313E+00	 3.124E-02	 1.001E-01	 1.293E-02	 5.902E-03	 1.654E-01	 1.896E-01	 3.991E+01	 4.396E+00	 4.556E+00	-4.950E+00	 2.897E-01	 4.352E+00	 3.759E+01	 5.177E-02	 4.982E-02
  16.482	 3.301E+02	 1.087E+00	 1.773E-01	-3.422E-02	 6.582E+01	-1.421E+00	 2.922E+01	 3.253E+00	 3.159E-02	 1.002E-01	 1.580E-02	 1.014E-02	 8.136E-02	 1.272E-01	 3.945E+01	 6.651E+00	 4.561E+00	-4.486E+00	 4.950E-01	 4.336E+00	 3.763E+01	 3.807E-01	 3.780E-01
  16.506	 3.379E+02	 1.112E+00	 1.777E-01	-3.308E-02	 6.525E+01	-1.361E+00	 2.920E+01	 3.232E+00	 3.199E-02	 1.005E-01	 1.729E-02	 1.127E-02	 4.600E-02	-4.869E-02	 3.897E+01	 9.212E+00	 4.540E+00	-3.947E+00	 7.371E-01	 4.305E+00	 3.754E+01	 3.400E-01	 3.369E-01
  16.532	 3.464E+02	 1.116E+00	 1.785E-01	-3.183E-02	 6.625E+01	-1.063E+00	 2.940E+01	 3.287E+00	 3.245E-02	 1.008E-01	 1.829E-02	 7.406E-03	 3.362E-02	-2.489E-01	 3.815E+01	 1.211E+01	 4.395E+00	-3.266E+00	 9.955E-01	 4.276E+00	 3.719E+01	-1.868E-01	-1.903E-01
  16.556	 3.542E+02	 1.103E+00	 1.804E-01	-3.063E-02	 4.918E+01	 3.542E+00	 2.959E+01	 3.175E+00	 3.290E-02	 1.009E-01	 1.905E-02	 1.804E-03	 1.602E-02	-1.312E-01	 3.715E+01	 1.472E+01	 4.466E+00	-2.632E+00	 1.266E+00	 4.262E+00	 3.676E+01	-8.214E-01	-8.251E-01
  16.580	 2.017E+00	 1.077E+00	 1.777E-01	-2.782E-02	 5.724E+01	-2.017E+00	 3.076E+01	 3.540E+00	 3.335E-02	 1.009E-01	 1.780E-02	-3.950E-03	-8.037E-02	-2.356E-01	 3.472E+01	 1.779E+01	 4.060E+00	-1.998E+00	 1.533E+00	 4.244E+00	 3.569E+01	-2.152E+00	-2.155E+00
  16.606	 1.049E+01	 1.031E+00	 1.702E-01	-2.549E-02	 6.934E+01	-3.881E+00	 2.890E+01	 3.056E+00	 3.378E-02	 1.007E-01	 1.541E-02	-1.680E-03	-1.491E-01	 3.161E-01	 3.517E+01	 2.000E+01	 4.369E+00	-1.391E+00	 1.714E+00	 3.963E+00	 3.450E+01	-2.691E+00	-2.694E+00
  16.630	 1.830E+01	 9.566E-01	 1.623E-01	-2.510E-02	 7.218E+01	-7.915E-01	 2.749E+01	 2.400E+00	 3.410E-02	 1.008E-01	 1.055E-02	 7.749E-03	-2.348E-01	 3.543E-01	 3.642E+01	 2.084E+01	 4.894E+00	-1.173E+00	 1.660E+00	 3.712E+00	 3.545E+01	-1.961E+00	-1.964E+00
  16.654	 2.612E+01	 8.633E-01	 1.589E-01	-2.484E-02	 7.188E+01	 1.472E+00	 2.832E+01	 2.163E+00	 3.428E-02	 1.011E-01	 5.015E-03	 1.061E-02	-2.116E-01	-1.729E-01	 3.609E+01	 2.274E+01	 4.936E+00	-8.824E-01	 1.805E+00	 3.936E+00	 3.681E+01	-2.041E+00	-2.042E+00
  16.678	 3.394E+01	 7.531E-01	 1.599E-01	-2.373E-02	 6.723E+01	 1.623E+00	 2.989E+01	 2.384E+00	 3.435E-02	 1.012E-01	 6.661E-04	 3.765E-04	-1.497E-01	-5.907E-01	 3.509E+01	 2.555E+01	 4.767E+00	-3.782E-01	 2.079E+00	 4.322E+00	 3.710E+01	-3.340E+00	-3.340E+00
  16.704	 4.241E+01	 6.181E-01	 1.634E-01	-2.197E-02	 6.371E+01	-4.337E-03	 3.027E+01	 2.672E+00	 3.432E-02	 1.010E-01	-2.728E-03	-1.233E-02	-1.261E-01	-2.548E-01	 3.506E+01	 2.876E+01	 4.721E+00	 2.946E-01	 2.405E+00	 4.515E+00	 3.629E+01	-5.187E+00	-5.186E+00
  16.728	 5.022E+01	 4.829E-01	 1.669E-01	-2.091E-02	 6.421E+01	-9.783E-01	 2.940E+01	 2.653E+00	 3.421E-02	 1.007E-01	-6.327E-03	-1.050E-02	-1.832E-01	 3.863E-01	 3.614E+01	 3.098E+01	 4.878E+00	 7.889E-01	 2.611E+00	 4.452E+00	 3.576E+01	-6.194E+00	-6.193E+00
  16.754	 5.869E+01	 3.268E-01	 1.706E-01	-2.098E-02	 6.517E+01	-3.913E-03	 2.856E+01	 2.346E+00	 3.398E-02	 1.006E-01	-1.202E-02	 3.451E-03	-2.423E-01	 5.488E-01	 3.735E+01	 3.210E+01	 5.068E+00	 1.043E+00	 2.656E+00	 4.364E+00	 3.615E+01	-6.270E+00	-6.268E+00
  16.778	 6.651E+01	 1.756E-01	 1.741E-01	-2.165E-02	 6.447E+01	 1.659E+00	 2.877E+01	 2.057E+00	 3.362E-02	 1.008E-01	-1.742E-02	 1.163E-02	-1.853E-01	 7.331E-02	 3.778E+01	 3.241E+01	 5.101E+00	 1.123E+00	 2.599E+00	 4.419E+00	 3.688E+01	-5.993E+00	-5.990E+00
  16.802	 7.433E+01	 1.990E-02	 1.771E-01	-2.201E-02	 6.306E+01	 2.389E+00	 2.937E+01	 1.957E+00	 3.317E-02	 1.011E-01	-2.002E-02	 7.036E-03	-2.110E-02	-3.967E-01	 3.786E+01	 3.278E+01	 5.057E+00	 1.223E+00	 2.568E+00	 4.531E+00	 3.719E+01	-5.903E+00	-5.899E+00
  16.826	 8.214E+01	-1.377E-01	 1.785E-01	-2.171E-02	 6.264E+01	 1.704E+00	 2.963E+01	 2.067E+00	 3.270E-02	 1.011E-01	-1.852E-02	-3.101E-03	 1.324E-01	-3.524E-01	 3.814E+01	 3.358E+01	 5.048E+00	 1.392E+00	 2.630E+00	 4.573E+00	 3.703E+01	-5.914E+00	-5.910E+00
  16.852	 9.061E+01	-3.063E-01	 1.782E-01	-2.106E-02	 6.357E+01	 3.729E-01	 2.955E+01	 2.290E+00	 3.227E-02	 1.010E-01	-1.436E-02	-6.453E-03	 1.604E-01	 1.120E-01	 3.871E+01	 3.457E+01	 5.078E+00	 1.554E+00	 2.756E+00	 4.529E+00	 3.689E+01	-5.592E+00	-5.588E+00
  16.876	 9.843E+01	-4.557E-01	 1.770E-01	-2.078E-02	 6.444E+01	-1.902E-01	 2.953E+01	 2.441E+00	 3.196E-02	 1.009E-01	-1.130E-02	 1.920E-04	 8.906E-02	 3.744E-01	 3.911E+01	 3.485E+01	 5.077E+00	 1.562E+00	 2.805E+00	 4.485E+00	 3.711E+01	-4.848E+00	-4.845E+00
  16.902	 1.069E+02	-6.063E-01	 1.757E-01	-2.109E-02	 6.471E+01	 1.419E-01	 2.977E+01	 2.487E+00	 3.169E-02	 1.010E-01	-9.709E-03	 8.497E-03	 5.182E-02	 1.928E-01	 3.925E+01	 3.411E+01	 5.008E+00	 1.390E+00	 2.712E+00	 4.472E+00	 3.751E+01	-3.812E+00	-3.810E+00
  16.926	 1.147E+02	-7.315E-01	 1.747E-01	-2.170E-02	 6.460E+01	 5.816E-01	 3.002E+01	 2.488E+00	 3.148E-02	 1.012E-01	-7.771E-03	 8.955E-03	 1.242E-01	-1.452E-01	 3.931E+01	 3.275E+01	 4.921E+00	 1.142E+00	 2.544E+00	 4.448E+00	 3.768E+01	-2.887E+00	-2.885E+00
  16.950	 1.225E+02	-8.412E-01	 1.740E-01	-2.230E-02	 6.458E+01	 5.003E-01	 2.997E+01	 2.548E+00	 3.134E-02	 1.014E-01	-3.464E-03	 3.274E-03	 2.300E-01	-2.764E-01	 3.948E+01	 3.132E+01	 4.849E+00	 8.789E-01	 2.395E+00	 4.375E+00	 3.762E+01	-1.992E+00	-1.992E+00
  16.974	 1.304E+02	-9.340E-01	 1.736E-01	-2.279E-02	 6.456E+01	-8.307E-02	 2.973E+01	 2.697E+00	 3.133E-02	 1.014E-01	 2.690E-03	-1.979E-03	 2.657E-01	-1.267E-01	 3.976E+01	 3.000E+01	 4.795E+00	 5.960E-01	 2.299E+00	 4.281E+00	 3.754E+01	-1.087E+00	-1.087E+00
  17.000	 1.388E+02	-1.014E+00	 1.731E-01	-2.339E-02	 6.437E+01	-7.344E-01	 2.959E+01	 2.898E+00	 3.148E-02	 1.013E-01	 8.880E-03	-2.091E-03	 1.963E-01	 1.007E-01	 4.005E+01	 2.840E+01	 4.734E+00	 2.274E-01	 2.199E+00	 4.217E+00	 3.756E+01	-2.158E-01	-2.174E-01
  17.024	 1.467E+02	-1.068E+00	 1.725E-01	-2.418E-02	 6.431E+01	-1.021E+00	 2.959E+01	 3.037E+00	 3.174E-02	 1.013E-01	 1.245E-02	 1.272E-03	 1.009E-01	 1.351E-01	 4.023E+01	 2.645E+01	 4.660E+00	-2.002E-01	 2.050E+00	 4.217E+00	 3.764E+01	 2.938E-01	 2.914E-01
  17.048	 1.545E+02	-1.103E+00	 1.717E-01	-2.520E-02	 6.431E+01	-9.753E-01	 2.967E+01	 3.108E+00	 3.206E-02	 1.014E-01	 1.415E-02	 3.120E-03	 5.118E-02	 1.045E-02	 4.046E+01	 2.399E+01	 4.604E+00	-6.938E-01	 1.836E+00	 4.249E+00	 3.762E+01	 3.981E-01	 3.952E-01
  17.074	 1.630E+02	-1.117E+00	 1.707E-01	-2.640E-02	 6.466E+01	-9.892E-01	 2.916E+01	 3.151E+00	 3.245E-02	 1.014E-01	 1.516E-02	 6.324E-04	 3.144E-02	-1.914E-01	 4.049E+01	 2.101E+01	 4.480E+00	-1.269E+00	 1.593E+00	 4.272E+00	 3.738E+01	 1.100E-01	 1.066E-01
  17.098	 1.708E+02	-1.111E+00	 1.693E-01	-2.746E-02	 6.439E+01	-8.750E-01	 2.447E+01	 3.212E+00	 3.282E-02	 1.014E-01	 1.590E-02	-5.487E-03	 3.324E-02	-2.487E-01	 3.998E+01	 1.796E+01	 4.305E+00	-1.816E+00	 1.532E+00	 4.442E+00	 3.688E+01	-6.388E-01	-6.425E-01
  17.122	 1.786E+02	-1.089E+00	 1.668E-01	-2.828E-02	 6.514E+01	-1.428E+00	 3.060E+01	 3.855E+00	 3.320E-02	 1.012E-01	 1.572E-02	-1.047E-02	-7.276E-02	-2.958E-01	 3.764E+01	 1.490E+01	 3.765E+00	-2.400E+00	 1.254E+00	 4.942E+00	 3.652E+01	-1.344E+00	-1.347E+00
  17.146	 1.864E+02	-1.059E+00	 1.615E-01	-2.902E-02	 6.214E+01	-5.799E-01	 3.233E+01	 3.190E+00	 3.356E-02	 1.009E-01	 1.395E-02	-1.422E-02	-7.703E-02	 1.405E-01	 3.813E+01	 1.036E+01	 4.062E+00	-2.987E+00	 5.094E-01	 4.554E+00	 3.487E+01	-2.703E+00	-2.707E+00
  17.172	 1.949E+02	-9.925E-01	 1.584E-01	-2.954E-02	 6.919E+01	-2.753E+00	 2.959E+01	 3.239E+00	 3.388E-02	 1.006E-01	 1.015E-02	-5.989E-03	-2.083E-01	 4.314E-01	 3.961E+01	 9.339E+00	 4.185E+00	-3.352E+00	 5.563E-01	 3.852E+00	 3.489E+01	-2.245E+00	-2.248E+00
  17.196	 2.027E+02	-9.068E-01	 1.597E-01	-3.022E-02	 6.950E+01	-3.779E+00	 2.836E+01	 3.762E+00	 3.406E-02	 1.006E-01	 4.745E-03	 1.782E-03	-2.251E-01	 1.188E-01	 4.012E+01	 9.239E+00	 4.192E+00	-3.726E+00	 7.403E-01	 3.532E+00	 3.629E+01	-1.832E+00	-1.834E+00
  17.222	 2.112E+02	-7.949E-01	 1.648E-01	-3.168E-02	 6.407E+01	-3.273E+00	 2.918E+01	 4.061E+00	 3.411E-02	 1.006E-01	-3.635E-04	-3.390E-03	-1.622E-01	-4.800E-01	 3.936E+01	 7.274E+00	 3.909E+00	-4.278E+00	 6.225E-01	 3.678E+00	 3.717E+01	-2.759E+00	-2.760E+00
  17.246	 2.190E+02	-6.752E-01	 1.700E-01	-3.348E-02	 6.144E+01	-2.483E+00	 3.014E+01	 3.892E+00	 3.406E-02	 1.003E-01	-3.574E-03	-1.615E-02	-1.131E-01	-4.529E-01	 3.891E+01	 3.832E+00	 3.687E+00	-4.839E+00	 2.285E-01	 3.984E+00	 3.669E+01	-4.466E+00	-4.466E+00
  17.270	 2.268E+02	-5.442E-01	 1.733E-01	-3.522E-02	 6.243E+01	-1.980E+00	 2.992E+01	 3.591E+00	 3.395E-02	 9.988E-02	-6.422E-03	-2.017E-02	-1.381E-01	 1.640E-01	 3.970E+01	 4.941E-01	 3.772E+00	-5.335E+00	-1.704E-01	 4.140E+00	 3.590E+01	-5.866E+00	-5.865E+00
  17.294	 2.346E+02	-4.039E-01	 1.749E-01	-3.640E-02	 6.491E+01	-2.262E+00	 2.909E+01	 3.568E+00	 3.374E-02	 9.950E-02	-1.060E-02	-9.625E-03	-2.087E-01	 6.238E-01	 4.100E+01	-1.105E+00	 3.995E+00	-5.672E+00	-2.972E-01	 4.184E+00	 3.585E+01	-6.325E+00	-6.323E+00
  17.320	 2.431E+02	-2.432E-01	 1.766E-01	-3.696E-02	 6.560E+01	-3.203E+00	 2.878E+01	 3.923E+00	 3.339E-02	 9.945E-02	-1.635E-02	 4.942E-03	-2.103E-01	 3.752E-01	 4.180E+01	-1.057E+00	 4.126E+00	-5.878E+00	-1.670E-01	 4.286E+00	 3.658E+01	-6.104E+00	-6.101E+00
  17.344	 2.509E+02	-8.897E-02	 1.787E-01	-3.718E-02	 6.434E+01	-3.980E+00	 2.913E+01	 4.262E+00	 3.295E-02	 9.962E-02	-2.009E-02	 7.173E-03	-8.353E-02	-1.808E-01	 4.188E+01	-8.601E-01	 4.121E+00	-6.012E+00	-5.711E-02	 4.446E+00	 3.713E+01	-5.909E+00	-5.906E+00
  17.368	 2.587E+02	 6.843E-02	 1.808E-01	-3.755E-02	 6.358E+01	-4.116E+00	 2.940E+01	 4.297E+00	 3.246E-02	 9.971E-02	-1.995E-02	-7.483E-04	 9.229E-02	-3.866E-01	 4.184E+01	-1.492E+00	 4.109E+00	-6.160E+00	-1.178E-01	 4.563E+00	 3.714E+01	-5.924E+00	-5.920E+00
  17.394	 2.672E+02	 2.388E-01	 1.822E-01	-3.825E-02	 6.428E+01	-3.483E+00	 2.921E+01	 4.033E+00	 3.199E-02	 9.959E-02	-1.601E-02	-7.150E-03	 1.848E-01	-3.330E-02	 4.201E+01	-2.743E+00	 4.171E+00	-6.327E+00	-3.088E-01	 4.563E+00	 3.691E+01	-5.785E+00	-5.782E+00
  17.418	 2.750E+02	 3.916E-01	 1.828E-01	-3.879E-02	 6.523E+01	-2.751E+00	 2.887E+01	 3.783E+00	 3.166E-02	 9.945E-02	-1.193E-02	-2.713E-03	 1.401E-01	 3.666E-01	 4.210E+01	-3.340E+00	 4.251E+00	-6.409E+00	-4.159E-01	 4.494E+00	 3.697E+01	-5.218E+00	-5.215E+00
  17.442	 2.828E+02	 5.360E-01	 1.829E-01	-3.883E-02	 6.540E+01	-2.520E+00	 2.877E+01	 3.726E+00	 3.140E-02	 9.950E-02	-9.484E-03	 7.224E-03	 7.119E-02	 3.873E-01	 4.185E+01	-2.803E+00	 4.291E+00	-6.358E+00	-3.581E-01	 4.436E+00	 3.732E+01	-4.321E+00	-4.319E+00
  17.468	 2.913E+02	 6.790E-01	 1.824E-01	-3.822E-02	 6.502E+01	-2.850E+00	 2.886E+01	 3.794E+00	 3.118E-02	 9.979E-02	-7.578E-03	 1.319E-02	 9.674E-02	 4.521E-02	 4.133E+01	-1.329E+00	 4.310E+00	-6.159E+00	-1.789E-01	 4.405E+00	 3.764E+01	-3.289E+00	-3.287E+00
  17.492	 2.991E+02	 7.957E-01	 1.812E-01	-3.738E-02	 6.516E+01	-3.139E+00	 2.895E+01	 3.793E+00	 3.103E-02	 1.001E-01	-4.072E-03	 1.072E-02	 2.001E-01	-2.115E-01	 4.089E+01	 1.316E-01	 4.354E+00	-5.902E+00	-2.269E-02	 4.386E+00	 3.766E+01	-2.391E+00	-2.390E+00
  17.516	 3.069E+02	 8.961E-01	 1.796E-01	-3.660E-02	 6.588E+01	-2.908E+00	 2.898E+01	 3.645E+00	 3.100E-02	 1.003E-01	 1.765E-03	 5.464E-03	 2.735E-01	-1.770E-01	 4.059E+01	 1.397E+00	 4.435E+00	-5.623E+00	 7.593E-02	 4.368E+00	 3.756E+01	-1.484E+00	-1.484E+00
  17.542	 3.154E+02	 9.851E-01	 1.781E-01	-3.586E-02	 6.654E+01	-2.250E+00	 2.908E+01	 3.437E+00	 3.114E-02	 1.004E-01	 8.735E-03	 3.761E-03	 2.428E-01	 5.431E-02	 4.027E+01	 2.854E+00	 4.518E+00	-5.282E+00	 1.685E-01	 4.358E+00	 3.753E+01	-5.430E-01	-5.442E-01
  17.566	 3.232E+02	 1.048E+00	 1.774E-01	-3.508E-02	 6.639E+01	-1.668E+00	 2.915E+01	 3.297E+00	 3.141E-02	 1.005E-01	 1.347E-02	 6.922E-03	 1.485E-01	 1.798E-01	 3.988E+01	 4.650E+00	 4.568E+00	-4.898E+00	 3.114E-01	 4.351E+00	 3.760E+01	 1.160E-01	 1.140E-01
  17.590	 3.311E+02	 1.091E+00	 1.774E-01	-3.409E-02	 6.574E+01	-1.409E+00	 2.921E+01	 3.247E+00	 3.177E-02	 1.007E-01	 1.598E-02	 1.052E-02	 7.004E-02	 9.242E-02	 3.941E+01	 6.963E+00	 4.565E+00	-4.422E+00	 5.245E-01	 4.334E+00	 3.763E+01	 3.909E-01	 3.882E-01
  17.614	 3.389E+02	 1.113E+00	 1.778E-01	-3.294E-02	 6.520E+01	-1.344E+00	 2.921E+01	 3.230E+00	 3.217E-02	 1.010E-01	 1.725E-02	 1.070E-02	 3.799E-02	-9.567E-02	 3.892E+01	 9.542E+00	 4.527E+00	-3.872E+00	 7.677E-01	 4.302E+00	 3.751E+01	 3.023E-01	 2.991E-01
  17.640	 3.474E+02	 1.115E+00	 1.787E-01	-3.171E-02	 6.682E+01	-9.349E-01	 2.946E+01	 3.305E+00	 3.263E-02	 1.012E-01	 1.810E-02	 5.868E-03	 2.798E-02	-2.894E-01	 3.802E+01	 1.246E+01	 4.363E+00	-3.175E+00	 1.026E+00	 4.276E+00	 3.712E+01	-3.023E-01	-3.059E-01
  17.664	 3.552E+02	 1.100E+00	 1.805E-01	-3.040E-02	 4.594E+01	 3.953E+00	 2.973E+01	 3.182E+00	 3.307E-02	 1.013E-01	 1.867E-02	 1.777E-04	-9.754E-03	-1.501E-01	 3.694E+01	 1.502E+01	 4.477E+00	-2.574E+00	 1.290E+00	 4.258E+00	 3.675E+01	-8.565E-01	-8.602E-01
  17.690	 3.647E+00	 1.071E+00	 1.768E-01	-2.720E-02	 5.866E+01	-3.109E+00	 3.048E+01	 3.497E+00	 3.354E-02	 1.012E-01	 1.693E-02	-6.348E-03	-7.174E-02	-1.146E-01	 3.464E+01	 1.847E+01	 4.040E+00	-1.855E+00	 1.616E+00	 4.234E+00	 3.537E+01	-2.455E+00	-2.459E+00
  17.714	 1.147E+01	 1.023E+00	 1.691E-01	-2.538E-02	 6.990E+01	-3.599E+00	 2.864E+01	 2.969E+00	 3.392E-02	 1.011E-01	 1.436E-02	-2.477E-03	-1.685E-01	 3.428E-01	 3.537E+01	 2.010E+01	 4.450E+00	-1.353E+00	 1.707E+00	 3.914E+00	 3.453E+01	-2.614E+00	-2.617E+00
  17.738	 1.928E+01	 9.461E-01	 1.616E-01	-2.509E-02	 7.235E+01	-4.194E-01	 2.746E+01	 2.341E+00	 3.420E-02	 1.011E-01	 9.195E-03	 6.659E-03	-2.396E-01	 3.021E-01	 3.649E+01	 2.101E+01	 4.928E+00	-1.146E+00	 1.667E+00	 3.715E+00	 3.564E+01	-1.905E+00	-1.908E+00
  17.762	 2.710E+01	 8.509E-01	 1.588E-01	-2.475E-02	 7.150E+01	 1.605E+00	 2.852E+01	 2.172E+00	 3.436E-02	 1.013E-01	 3.684E-03	 7.684E-03	-2.068E-01	-2.560E-01	 3.597E+01	 2.306E+01	 4.920E+00	-8.315E-01	 1.835E+00	 3.984E+00	 3.692E+01	-2.140E+00	-2.142E+00
  17.788	 3.557E+01	 7.288E-01	 1.605E-01	-2.341E-02	 6.625E+01	 1.395E+00	 3.007E+01	 2.450E+00	 3.439E-02	 1.014E-01	-8.085E-04	-5.034E-03	-1.408E-01	-5.952E-01	 3.498E+01	 2.618E+01	 4.743E+00	-2.525E-01	 2.143E+00	 4.383E+00	 3.700E+01	-3.696E+00	-3.696E+00
  17.812	 4.338E+01	 6.024E-01	 1.638E-01	-2.179E-02	 6.363E+01	-2.018E-01	 3.021E+01	 2.688E+00	 3.433E-02	 1.011E-01	-3.884E-03	-1.552E-02	-1.296E-01	-1.778E-01	 3.516E+01	 2.909E+01	 4.733E+00	 3.672E-01	 2.438E+00	 4.518E+00	 3.619E+01	-5.359E+00	-5.358E+00
  17.836	 5.120E+01	 4.662E-01	 1.673E-01	-2.085E-02	 6.438E+01	-9.747E-01	 2.927E+01	 2.630E+00	 3.420E-02	 1.008E-01	-7.653E-03	-1.185E-02	-1.920E-01	 4.449E-01	 3.630E+01	 3.118E+01	 4.904E+00	 8.330E-01	 2.626E+00	 4.440E+00	 3.576E+01	-6.246E+00	-6.245E+00
  17.862	 5.967E+01	 3.091E-01	 1.710E-01	-2.105E-02	 6.518E+01	 1.957E-01	 2.854E+01	 2.305E+00	 3.393E-02	 1.006E-01	-1.348E-02	 2.481E-03	-2.415E-01	 5.170E-01	 3.745E+01	 3.216E+01	 5.081E+00	 1.058E+00	 2.652E+00	 4.364E+00	 3.624E+01	-6.236E+00	-6.233E+00
  17.886	 6.749E+01	 1.573E-01	 1.746E-01	-2.173E-02	 6.430E+01	 1.822E+00	 2.884E+01	 2.032E+00	 3.354E-02	 1.008E-01	-1.867E-02	 9.283E-03	-1.682E-01	 4.654E-03	 3.780E+01	 3.244E+01	 5.097E+00	 1.132E+00	 2.592E+00	 4.434E+00	 3.695E+01	-5.964E+00	-5.960E+00
[...]
  18.132	 1.476E+02	-1.074E+00	 1.723E-01	-2.428E-02	 6.433E+01	-1.027E+00	 2.960E+01	 3.048E+00	 3.166E-02	 1.009E-01	 1.292E-02	 2.101E-03	 9.572E-02	 1.389E-01	 4.023E+01	 2.616E+01	 4.646E+00	-2.592E-01	 2.027E+00	 4.218E+00	 3.764E+01	 3.255E-01	 3.230E-01
  18.158	 1.561E+02	-1.107E+00	 1.714E-01	-2.542E-02	 6.437E+01	-9.686E-01	 2.967E+01	 3.118E+00	 3.203E-02	 1.010E-01	 1.469E-02	 3.922E-03	 5.052E-02	-8.713E-03	 4.048E+01	 2.344E+01	 4.587E+00	-8.031E-01	 1.787E+00	 4.254E+00	 3.760E+01	 3.839E-01	 3.808E-01
  18.182	 1.639E+02	-1.117E+00	 1.705E-01	-2.653E-02	 6.469E+01	-9.880E-01	 2.903E+01	 3.157E+00	 3.239E-02	 1.011E-01	 1.564E-02	 1.147E-03	 3.440E-02	-1.971E-01	 4.043E+01	 2.064E+01	 4.455E+00	-1.337E+00	 1.570E+00	 4.271E+00	 3.733E+01	 4.133E-02	 3.789E-02
  18.206	 1.718E+02	-1.109E+00	 1.689E-01	-2.757E-02	 6.434E+01	-8.790E-01	 2.331E+01	 3.264E+00	 3.278E-02	 1.011E-01	 1.647E-02	-4.770E-03	 3.392E-02	-2.194E-01	 3.986E+01	 1.762E+01	 4.281E+00	-1.883E+00	 1.543E+00	 4.487E+00	 3.684E+01	-7.134E-01	-7.171E-01
  18.230	 1.796E+02	-1.085E+00	 1.662E-01	-2.837E-02	 6.491E+01	-1.379E+00	 3.246E+01	 3.804E+00	 3.317E-02	 1.009E-01	 1.603E-02	-9.758E-03	-7.582E-02	-3.067E-01	 3.727E+01	 1.427E+01	 3.697E+00	-2.487E+00	 1.154E+00	 4.974E+00	 3.631E+01	-1.590E+00	-1.594E+00
  18.256	 1.880E+02	-1.049E+00	 1.605E-01	-2.913E-02	 6.346E+01	-9.071E-01	 3.158E+01	 3.104E+00	 3.356E-02	 1.006E-01	 1.412E-02	-1.135E-02	-1.025E-01	 2.141E-01	 3.831E+01	 9.845E+00	 4.060E+00	-3.073E+00	 4.662E-01	 4.396E+00	 3.464E+01	-2.760E+00	-2.764E+00
  18.280	 1.959E+02	-9.830E-01	 1.583E-01	-2.959E-02	 6.975E+01	-2.995E+00	 2.933E+01	 3.298E+00	 3.386E-02	 1.004E-01	 1.018E-02	-2.621E-03	-2.156E-01	 4.306E-01	 3.973E+01	 9.364E+00	 4.194E+00	-3.392E+00	 5.860E-01	 3.788E+00	 3.504E+01	-2.150E+00	-2.153E+00
  18.304	 2.037E+02	-8.953E-01	 1.601E-01	-3.034E-02	 6.897E+01	-3.762E+00	 2.836E+01	 3.818E+00	 3.404E-02	 1.004E-01	 4.762E-03	 4.170E-03	-2.194E-01	 4.708E-02	 4.006E+01	 9.123E+00	 4.171E+00	-3.784E+00	 7.456E-01	 3.521E+00	 3.646E+01	-1.865E+00	-1.867E+00
  18.330	 2.121E+02	-7.811E-01	 1.654E-01	-3.188E-02	 6.356E+01	-3.176E+00	 2.934E+01	 4.061E+00	 3.410E-02	 1.005E-01	-1.517E-04	-2.700E-03	-1.541E-01	-5.169E-01	 3.923E+01	 6.904E+00	 3.866E+00	-4.347E+00	 5.846E-01	 3.713E+00	 3.716E+01	-2.949E+00	-2.949E+00
  18.354	 2.200E+02	-6.599E-01	 1.705E-01	-3.370E-02	 6.138E+01	-2.392E+00	 3.018E+01	 3.853E+00	 3.405E-02	 1.003E-01	-3.232E-03	-1.519E-02	-1.119E-01	-3.955E-01	 3.892E+01	 3.365E+00	 3.679E+00	-4.907E+00	 1.718E-01	 4.011E+00	 3.657E+01	-4.677E+00	-4.677E+00
  18.378	 2.278E+02	-5.278E-01	 1.735E-01	-3.539E-02	 6.273E+01	-1.970E+00	 2.982E+01	 3.568E+00	 3.394E-02	 9.985E-02	-6.180E-03	-1.732E-02	-1.468E-01	 2.460E-01	 3.984E+01	 1.818E-01	 3.797E+00	-5.386E+00	-2.037E-01	 4.146E+00	 3.584E+01	-5.974E+00	-5.973E+00
  18.402	 2.356E+02	-3.865E-01	 1.750E-01	-3.650E-02	 6.515E+01	-2.349E+00	 2.901E+01	 3.594E+00	 3.375E-02	 9.956E-02	-1.058E-02	-5.561E-03	-2.165E-01	 6.317E-01	 4.113E+01	-1.171E+00	 4.018E+00	-5.703E+00	-2.919E-01	 4.189E+00	 3.591E+01	-6.322E+00	-6.319E+00
  18.428	 2.441E+02	-2.250E-01	 1.769E-01	-3.699E-02	 6.550E+01	-3.315E+00	 2.880E+01	 3.972E+00	 3.339E-02	 9.961E-02	-1.636E-02	 7.982E-03	-2.034E-01	 3.002E-01	 4.184E+01	-1.014E+00	 4.132E+00	-5.896E+00	-1.479E-01	 4.304E+00	 3.667E+01	-6.067E+00	-6.064E+00
  18.452	 2.519E+02	-7.029E-02	 1.790E-01	-3.721E-02	 6.417E+01	-4.033E+00	 2.918E+01	 4.284E+00	 3.295E-02	 9.983E-02	-1.978E-02	 8.353E-03	-6.500E-02	-2.453E-01	 4.187E+01	-8.929E-01	 4.120E+00	-6.029E+00	-5.497E-02	 4.466E+00	 3.716E+01	-5.902E+00	-5.898E+00
  18.478	 2.604E+02	 1.004E-01	 1.812E-01	-3.768E-02	 6.357E+01	-4.049E+00	 2.942E+01	 4.267E+00	 3.244E-02	 9.993E-02	-1.899E-02	-1.085E-03	 1.181E-01	-3.675E-01	 4.188E+01	-1.722E+00	 4.118E+00	-6.194E+00	-1.499E-01	 4.575E+00	 3.709E+01	-5.921E+00	-5.917E+00
  18.502	 2.682E+02	 2.572E-01	 1.824E-01	-3.834E-02	 6.439E+01	-3.379E+00	 2.915E+01	 3.993E+00	 3.203E-02	 9.983E-02	-1.511E-02	-5.852E-03	 1.812E-01	 1.531E-02	 4.205E+01	-2.871E+00	 4.184E+00	-6.343E+00	-3.296E-01	 4.558E+00	 3.689E+01	-5.736E+00	-5.733E+00
  18.526	 2.760E+02	 4.091E-01	 1.829E-01	-3.884E-02	 6.529E+01	-2.686E+00	 2.883E+01	 3.763E+00	 3.171E-02	 9.974E-02	-1.126E-02	-4.995E-04	 1.269E-01	 3.844E-01	 4.211E+01	-3.337E+00	 4.263E+00	-6.411E+00	-4.178E-01	 4.488E+00	 3.700E+01	-5.115E+00	-5.112E+00
  18.550	 2.838E+02	 5.522E-01	 1.829E-01	-3.880E-02	 6.536E+01	-2.536E+00	 2.877E+01	 3.730E+00	 3.147E-02	 9.984E-02	-9.085E-03	 9.170E-03	 6.426E-02	 3.490E-01	 4.182E+01	-2.666E+00	 4.298E+00	-6.342E+00	-3.412E-01	 4.434E+00	 3.737E+01	-4.198E+00	-4.195E+00
  18.576	 2.923E+02	 6.933E-01	 1.824E-01	-3.813E-02	 6.499E+01	-2.900E+00	 2.887E+01	 3.799E+00	 3.126E-02	 1.002E-01	-7.178E-03	 1.376E-02	 1.031E-01	-1.177E-02	 4.129E+01	-1.141E+00	 4.318E+00	-6.129E+00	-1.574E-01	 4.405E+00	 3.765E+01	-3.172E+00	-3.170E+00
  18.600	 3.001E+02	 8.081E-01	 1.811E-01	-3.728E-02	 6.523E+01	-3.142E+00	 2.895E+01	 3.780E+00	 3.113E-02	 1.005E-01	-3.468E-03	 1.023E-02	 2.084E-01	-2.383E-01	 4.087E+01	 2.966E-01	 4.367E+00	-5.869E+00	-7.635E-03	 4.386E+00	 3.765E+01	-2.277E+00	-2.276E+00
  18.626	 3.086E+02	 9.138E-01	 1.794E-01	-3.646E-02	 6.606E+01	-2.819E+00	 2.901E+01	 3.611E+00	 3.112E-02	 1.006E-01	 3.009E-03	 4.453E-03	 2.730E-01	-1.526E-01	 4.055E+01	 1.656E+00	 4.457E+00	-5.561E+00	 9.130E-02	 4.367E+00	 3.754E+01	-1.295E+00	-1.295E+00
  18.650	 3.164E+02	 9.930E-01	 1.780E-01	-3.577E-02	 6.656E+01	-2.168E+00	 2.908E+01	 3.414E+00	 3.126E-02	 1.007E-01	 9.223E-03	 3.467E-03	 2.293E-01	 6.756E-02	 4.024E+01	 3.049E+00	 4.529E+00	-5.239E+00	 1.823E-01	 4.358E+00	 3.753E+01	-4.455E-01	-4.468E-01
  18.674	 3.242E+02	 1.053E+00	 1.774E-01	-3.498E-02	 6.632E+01	-1.619E+00	 2.915E+01	 3.284E+00	 3.154E-02	 1.008E-01	 1.360E-02	 6.712E-03	 1.341E-01	 1.729E-01	 3.984E+01	 4.912E+00	 4.579E+00	-4.845E+00	 3.344E-01	 4.350E+00	 3.761E+01	 1.761E-01	 1.740E-01
  18.698	 3.320E+02	 1.094E+00	 1.775E-01	-3.396E-02	 6.567E+01	-1.403E+00	 2.920E+01	 3.242E+00	 3.190E-02	 1.011E-01	 1.581E-02	 9.769E-03	 6.177E-02	 6.275E-02	 3.936E+01	 7.278E+00	 4.567E+00	-4.357E+00	 5.549E-01	 4.330E+00	 3.762E+01	 3.970E-01	 3.943E-01
  18.724	 3.405E+02	 1.114E+00	 1.780E-01	-3.270E-02	 6.510E+01	-1.330E+00	 2.917E+01	 3.222E+00	 3.233E-02	 1.013E-01	 1.699E-02	 8.852E-03	 3.259E-02	-1.418E-01	 3.882E+01	 1.009E+01	 4.508E+00	-3.751E+00	 8.200E-01	 4.296E+00	 3.747E+01	 2.419E-01	 2.386E-01
  18.748	 3.483E+02	 1.113E+00	 1.789E-01	-3.158E-02	 6.760E+01	-7.338E-01	 2.950E+01	 3.304E+00	 3.274E-02	 1.015E-01	 1.768E-02	 3.495E-03	 2.764E-02	-3.033E-01	 3.790E+01	 1.281E+01	 4.345E+00	-3.084E+00	 1.061E+00	 4.276E+00	 3.704E+01	-4.191E-01	-4.226E-01
  18.772	 3.562E+02	 1.096E+00	 1.805E-01	-3.012E-02	 4.454E+01	 3.884E+00	 2.995E+01	 3.240E+00	 3.318E-02	 1.015E-01	 1.808E-02	-2.012E-03	-3.616E-02	-1.902E-01	 3.663E+01	 1.535E+01	 4.453E+00	-2.517E+00	 1.307E+00	 4.253E+00	 3.674E+01	-9.206E-01	-9.243E-01
  18.798	 4.624E+00	 1.067E+00	 1.761E-01	-2.686E-02	 6.060E+01	-3.633E+00	 3.018E+01	 3.430E+00	 3.362E-02	 1.013E-01	 1.614E-02	-8.304E-03	-7.057E-02	-1.036E-02	 3.471E+01	 1.881E+01	 4.084E+00	-1.782E+00	 1.658E+00	 4.217E+00	 3.519E+01	-2.555E+00	-2.558E+00
  18.822	 1.244E+01	 1.015E+00	 1.680E-01	-2.528E-02	 7.044E+01	-3.268E+00	 2.838E+01	 2.879E+00	 3.398E-02	 1.012E-01	 1.325E-02	-3.284E-03	-1.834E-01	 3.737E-01	 3.558E+01	 2.020E+01	 4.536E+00	-1.323E+00	 1.698E+00	 3.869E+00	 3.460E+01	-2.519E+00	-2.522E+00
  18.846	 2.026E+01	 9.349E-01	 1.609E-01	-2.507E-02	 7.251E+01	-6.814E-02	 2.749E+01	 2.291E+00	 3.424E-02	 1.012E-01	 7.896E-03	 5.531E-03	-2.398E-01	 2.482E-01	 3.651E+01	 2.121E+01	 4.952E+00	-1.117E+00	 1.678E+00	 3.729E+00	 3.583E+01	-1.867E+00	-1.869E+00
  18.870	 2.808E+01	 8.378E-01	 1.588E-01	-2.464E-02	 7.102E+01	 1.698E+00	 2.874E+01	 2.191E+00	 3.436E-02	 1.014E-01	 2.500E-03	 4.816E-03	-1.988E-01	-3.278E-01	 3.583E+01	 2.339E+01	 4.898E+00	-7.760E-01	 1.867E+00	 4.035E+00	 3.702E+01	-2.264E+00	-2.265E+00
  18.896	 3.654E+01	 7.139E-01	 1.608E-01	-2.320E-02	 6.570E+01	 1.227E+00	 3.017E+01	 2.489E+00	 3.437E-02	 1.013E-01	-1.784E-03	-8.724E-03	-1.345E-01	-5.757E-01	 3.493E+01	 2.656E+01	 4.730E+00	-1.749E-01	 2.181E+00	 4.414E+00	 3.692E+01	-3.913E+00	-3.913E+00
  18.920	 4.436E+01	 5.864E-01	 1.642E-01	-2.162E-02	 6.362E+01	-3.791E-01	 3.012E+01	 2.696E+00	 3.429E-02	 1.010E-01	-4.815E-03	-1.773E-02	-1.326E-01	-8.837E-02	 3.526E+01	 2.941E+01	 4.747E+00	 4.367E-01	 2.469E+00	 4.513E+00	 3.610E+01	-5.514E+00	-5.513E+00
  18.946	 5.283E+01	 4.373E-01	 1.680E-01	-2.080E-02	 6.461E+01	-8.832E-01	 2.904E+01	 2.577E+00	 3.411E-02	 1.006E-01	-9.122E-03	-1.112E-02	-2.049E-01	 5.309E-01	 3.657E+01	 3.146E+01	 4.947E+00	 8.961E-01	 2.644E+00	 4.414E+00	 3.578E+01	-6.300E+00	-6.298E+00
  18.970	 6.065E+01	 2.910E-01	 1.715E-01	-2.113E-02	 6.514E+01	 4.140E-01	 2.854E+01	 2.264E+00	 3.383E-02	 1.005E-01	-1.461E-02	 2.405E-03	-2.368E-01	 4.786E-01	 3.752E+01	 3.221E+01	 5.089E+00	 1.069E+00	 2.646E+00	 4.366E+00	 3.634E+01	-6.196E+00	-6.193E+00
  18.994	 6.846E+01	 1.385E-01	 1.750E-01	-2.180E-02	 6.411E+01	 1.968E+00	 2.892E+01	 2.012E+00	 3.341E-02	 1.006E-01	-1.949E-02	 7.798E-03	-1.476E-01	-5.863E-02	 3.781E+01	 3.248E+01	 5.091E+00	 1.142E+00	 2.586E+00	 4.450E+00	 3.702E+01	-5.940E+00	-5.937E+00
  19.018	 7.628E+01	-1.797E-02	 1.776E-01	-2.200E-02	 6.282E+01	 2.332E+00	 2.949E+01	 1.967E+00	 3.292E-02	 1.007E-01	-2.098E-02	 1.065E-03	 2.801E-02	-4.221E-01	 3.790E+01	 3.295E+01	 5.050E+00	 1.260E+00	 2.575E+00	 4.554E+00	 3.719E+01	-5.904E+00	-5.900E+00
  19.044	 8.475E+01	-1.886E-01	 1.786E-01	-2.152E-02	 6.283E+01	 1.284E+00	 2.967E+01	 2.134E+00	 3.240E-02	 1.006E-01	-1.818E-02	-8.350E-03	 1.641E-01	-2.088E-01	 3.831E+01	 3.391E+01	 5.055E+00	 1.451E+00	 2.667E+00	 4.568E+00	 3.697E+01	-5.865E+00	-5.861E+00
  19.068	 9.257E+01	-3.431E-01	 1.779E-01	-2.095E-02	 6.383E+01	 1.510E-01	 2.953E+01	 2.335E+00	 3.201E-02	 1.004E-01	-1.413E-02	-7.939E-03	 1.541E-01	 2.332E-01	 3.883E+01	 3.471E+01	 5.081E+00	 1.570E+00	 2.778E+00	 4.517E+00	 3.692E+01	-5.435E+00	-5.432E+00
  19.094	 1.010E+02	-5.024E-01	 1.766E-01	-2.082E-02	 6.461E+01	-1.520E-01	 2.956E+01	 2.463E+00	 3.169E-02	 1.003E-01	-1.116E-02	 1.301E-03	 7.462E-02	 3.910E-01	 3.917E+01	 3.474E+01	 5.060E+00	 1.524E+00	 2.792E+00	 4.479E+00	 3.724E+01	-4.535E+00	-4.532E+00
  19.118	 1.089E+02	-6.379E-01	 1.754E-01	-2.123E-02	 6.468E+01	 2.755E-01	 2.986E+01	 2.486E+00	 3.144E-02	 1.004E-01	-9.656E-03	 8.088E-03	 6.886E-02	 1.317E-01	 3.924E+01	 3.380E+01	 4.982E+00	 1.332E+00	 2.673E+00	 4.469E+00	 3.758E+01	-3.574E+00	-3.571E+00
  19.142	 1.167E+02	-7.595E-01	 1.745E-01	-2.186E-02	 6.459E+01	 6.202E-01	 3.005E+01	 2.495E+00	 3.124E-02	 1.006E-01	-7.047E-03	 7.204E-03	 1.591E-01	-1.806E-01	 3.931E+01	 3.238E+01	 4.895E+00	 1.076E+00	 2.502E+00	 4.432E+00	 3.768E+01	-2.665E+00	-2.663E+00
  19.166	 1.245E+02	-8.653E-01	 1.738E-01	-2.242E-02	 6.459E+01	 3.902E-01	 2.993E+01	 2.579E+00	 3.112E-02	 1.008E-01	-1.969E-03	 1.581E-03	 2.547E-01	-2.356E-01	 3.951E+01	 3.098E+01	 4.827E+00	 8.117E-01	 2.367E+00	 4.348E+00	 3.759E+01	-1.766E+00	-1.766E+00
  19.192	 1.330E+02	-9.604E-01	 1.733E-01	-2.294E-02	 6.451E+01	-3.121E-01	 2.970E+01	 2.764E+00	 3.116E-02	 1.007E-01	 5.004E-03	-2.110E-03	 2.610E-01	-2.465E-02	 3.982E+01	 2.954E+01	 4.770E+00	 4.921E-01	 2.272E+00	 4.251E+00	 3.753E+01	-7.982E-01	-7.991E-01
  19.216	 1.408E+02	-1.029E+00	 1.728E-01	-2.354E-02	 6.434E+01	-8.314E-01	 2.960E+01	 2.940E+00	 3.135E-02	 1.007E-01	 1.039E-02	-2.936E-04	 1.794E-01	 1.534E-01	 4.006E+01	 2.796E+01	 4.710E+00	 1.284E-01	 2.168E+00	 4.208E+00	 3.758E+01	-5.617E-02	-5.796E-02
  19.240	 1.486E+02	-1.079E+00	 1.722E-01	-2.440E-02	 6.432E+01	-1.026E+00	 2.961E+01	 3.059E+00	 3.164E-02	 1.007E-01	 1.357E-02	 3.652E-03	 8.949E-02	 1.330E-01	 4.023E+01	 2.586E+01	 4.633E+00	-3.184E-01	 2.002E+00	 4.219E+00	 3.763E+01	 3.522E-01	 3.497E-01
  19.266	 1.571E+02	-1.109E+00	 1.713E-01	-2.555E-02	 6.446E+01	-9.850E-01	 2.959E+01	 3.123E+00	 3.202E-02	 1.009E-01	 1.527E-02	 5.164E-03	 4.750E-02	-3.414E-02	 4.045E+01	 2.310E+01	 4.562E+00	-8.691E-01	 1.759E+00	 4.255E+00	 3.757E+01	 3.626E-01	 3.595E-01
  19.290	 1.649E+02	-1.116E+00	 1.703E-01	-2.665E-02	 6.470E+01	-9.841E-01	 2.888E+01	 3.163E+00	 3.240E-02	 1.010E-01	 1.621E-02	 1.990E-03	 3.463E-02	-2.079E-01	 4.038E+01	 2.027E+01	 4.431E+00	-1.404E+00	 1.548E+00	 4.271E+00	 3.728E+01	-3.123E-02	-3.471E-02
  19.314	 1.727E+02	-1.106E+00	 1.686E-01	-2.768E-02	 6.436E+01	-9.090E-01	 2.239E+01	 3.340E+00	 3.280E-02	 1.009E-01	 1.706E-02	-3.796E-03	 2.807E-02	-1.988E-01	 3.971E+01	 1.728E+01	 4.247E+00	-1.949E+00	 1.548E+00	 4.532E+00	 3.681E+01	-7.753E-01	-7.790E-01
  19.338	 1.806E+02	-1.082E+00	 1.656E-01	-2.846E-02	 6.446E+01	-1.236E+00	 3.394E+01	 3.708E+00	 3.320E-02	 1.008E-01	 1.629E-02	-9.063E-03	-7.634E-02	-3.021E-01	 3.704E+01	 1.360E+01	 3.672E+00	-2.571E+00	 1.045E+00	 4.977E+00	 3.607E+01	-1.850E+00	-1.853E+00
  19.364	 1.890E+02	-1.042E+00	 1.600E-01	-2.919E-02	 6.428E+01	-1.109E+00	 3.128E+01	 3.074E+00	 3.360E-02	 1.005E-01	 1.429E-02	-8.945E-03	-1.204E-01	 2.624E-01	 3.852E+01	 9.632E+00	 4.081E+00	-3.115E+00	 4.569E-01	 4.301E+00	 3.455E+01	-2.743E+00	-2.747E+00
  19.388	 1.968E+02	-9.724E-01	 1.584E-01	-2.966E-02	 7.018E+01	-3.220E+00	 2.908E+01	 3.364E+00	 3.390E-02	 1.004E-01	 1.001E-02	 3.731E-04	-2.228E-01	 4.142E-01	 3.987E+01	 9.407E+00	 4.205E+00	-3.432E+00	 6.198E-01	 3.733E+00	 3.521E+01	-2.056E+00	-2.059E+00
  19.414	 2.053E+02	-8.743E-01	 1.610E-01	-3.060E-02	 6.790E+01	-3.712E+00	 2.844E+01	 3.908E+00	 3.408E-02	 1.005E-01	 4.168E-03	 5.752E-03	-2.092E-01	-8.886E-02	 3.997E+01	 8.875E+00	 4.130E+00	-3.886E+00	 7.456E-01	 3.532E+00	 3.672E+01	-1.968E+00	-1.970E+00
  19.438	 2.131E+02	-7.659E-01	 1.663E-01	-3.211E-02	 6.302E+01	-3.065E+00	 2.950E+01	 4.052E+00	 3.413E-02	 1.006E-01	-1.378E-04	-2.814E-03	-1.474E-01	-5.480E-01	 3.916E+01	 6.498E+00	 3.831E+00	-4.419E+00	 5.404E-01	 3.763E+00	 3.714E+01	-3.162E+00	-3.162E+00
  19.462	 2.209E+02	-6.431E-01	 1.711E-01	-3.395E-02	 6.139E+01	-2.307E+00	 3.019E+01	 3.810E+00	 3.409E-02	 1.003E-01	-3.144E-03	-1.485E-02	-1.138E-01	-3.309E-01	 3.901E+01	 2.897E+00	 3.684E+00	-4.974E+00	 1.142E-01	 4.044E+00	 3.646E+01	-4.890E+00	-4.890E+00
  19.486	 2.288E+02	-5.097E-01	 1.738E-01	-3.558E-02	 6.308E+01	-1.980E+00	 2.970E+01	 3.549E+00	 3.398E-02	 9.996E-02	-6.266E-03	-1.505E-02	-1.582E-01	 3.207E-01	 4.005E+01	-9.387E-02	 3.832E+00	-5.435E+00	-2.315E-01	 4.155E+00	 3.580E+01	-6.071E+00	-6.070E+00
  19.512	 2.372E+02	-3.550E-01	 1.754E-01	-3.664E-02	 6.545E+01	-2.516E+00	 2.888E+01	 3.647E+00	 3.375E-02	 9.973E-02	-1.138E-02	-1.204E-03	-2.267E-01	 6.112E-01	 4.136E+01	-1.210E+00	 4.057E+00	-5.749E+00	-2.726E-01	 4.205E+00	 3.603E+01	-6.299E+00	-6.296E+00
  19.536	 2.450E+02	-2.048E-01	 1.771E-01	-3.702E-02	 6.535E+01	-3.429E+00	 2.883E+01	 4.023E+00	 3.341E-02	 9.985E-02	-1.670E-02	 9.678E-03	-1.943E-01	 2.154E-01	 4.187E+01	-9.639E-01	 4.135E+00	-5.913E+00	-1.286E-01	 4.324E+00	 3.676E+01	-6.037E+00	-6.034E+00
  19.562	 2.535E+02	-3.658E-02	 1.795E-01	-3.728E-02	 6.389E+01	-4.114E+00	 2.929E+01	 4.318E+00	 3.293E-02	 1.001E-01	-1.983E-02	 7.546E-03	-2.992E-02	-3.316E-01	 4.186E+01	-9.770E-01	 4.115E+00	-6.059E+00	-5.816E-02	 4.496E+00	 3.718E+01	-5.902E+00	-5.899E+00
  19.586	 2.613E+02	 1.211E-01	 1.813E-01	-3.775E-02	 6.364E+01	-3.988E+00	 2.940E+01	 4.237E+00	 3.246E-02	 1.002E-01	-1.848E-02	-1.708E-03	 1.308E-01	-3.429E-01	 4.189E+01	-1.879E+00	 4.125E+00	-6.215E+00	-1.735E-01	 4.576E+00	 3.705E+01	-5.923E+00	-5.919E+00
  19.610	 2.691E+02	 2.775E-01	 1.824E-01	-3.842E-02	 6.456E+01	-3.276E+00	 2.910E+01	 3.954E+00	 3.206E-02	 1.001E-01	-1.451E-02	-5.416E-03	 1.760E-01	 6.645E-02	 4.207E+01	-2.990E+00	 4.197E+00	-6.358E+00	-3.496E-01	 4.546E+00	 3.688E+01	-5.685E+00	-5.681E+00
  19.634	 2.770E+02	 4.284E-01	 1.829E-01	-3.886E-02	 6.535E+01	-2.632E+00	 2.880E+01	 3.747E+00	 3.176E-02	 1.000E-01	-1.092E-02	 7.545E-04	 1.131E-01	 3.921E-01	 4.209E+01	-3.313E+00	 4.271E+00	-6.410E+00	-4.165E-01	 4.476E+00	 3.704E+01	-5.012E+00	-5.009E+00
  19.660	 2.854E+02	 5.813E-01	 1.829E-01	-3.870E-02	 6.527E+01	-2.573E+00	 2.876E+01	 3.734E+00	 3.151E-02	 1.002E-01	-8.884E-03	 1.046E-02	 5.913E-02	 2.773E-01	 4.172E+01	-2.408E+00	 4.301E+00	-6.310E+00	-3.087E-01	 4.425E+00	 3.744E+01	-3.998E+00	-3.995E+00
  19.684	 2.933E+02	 7.092E-01	 1.822E-01	-3.803E-02	 6.497E+01	-2.951E+00	 2.889E+01	 3.804E+00	 3.131E-02	 1.005E-01	-7.030E-03	 1.307E-02	 1.122E-01	-6.383E-02	 4.123E+01	-9.524E-01	 4.323E+00	-6.099E+00	-1.360E-01	 4.403E+00	 3.766E+01	-3.059E+00	-3.057E+00
  19.708	 3.011E+02	 8.219E-01	 1.809E-01	-3.719E-02	 6.531E+01	-3.133E+00	 2.895E+01	 3.765E+00	 3.119E-02	 1.007E-01	-3.058E-03	 8.710E-03	 2.184E-01	-2.515E-01	 4.083E+01	 4.561E-01	 4.378E+00	-5.835E+00	 6.160E-03	 4.384E+00	 3.763E+01	-2.164E+00	-2.163E+00
  19.734	 3.096E+02	 9.252E-01	 1.792E-01	-3.638E-02	 6.615E+01	-2.738E+00	 2.901E+01	 3.583E+00	 3.119E-02	 1.009E-01	 3.532E-03	 3.112E-03	 2.703E-01	-1.314E-01	 4.053E+01	 1.809E+00	 4.470E+00	-5.525E+00	 1.007E-01	 4.367E+00	 3.754E+01	-1.179E+00	-1.179E+00
  19.758	 3.174E+02	 1.002E+00	 1.780E-01	-3.569E-02	 6.656E+01	-2.081E+00	 2.909E+01	 3.392E+00	 3.135E-02	 1.009E-01	 9.541E-03	 2.642E-03	 2.162E-01	 8.373E-02	 4.021E+01	 3.252E+00	 4.538E+00	-5.194E+00	 1.975E-01	 4.360E+00	 3.754E+01	-3.490E-01	-3.504E-01
  19.782	 3.252E+02	 1.060E+00	 1.775E-01	-3.487E-02	 6.622E+01	-1.573E+00	 2.916E+01	 3.276E+00	 3.163E-02	 1.010E-01	 1.358E-02	 5.993E-03	 1.208E-01	 1.627E-01	 3.980E+01	 5.186E+00	 4.585E+00	-4.790E+00	 3.588E-01	 4.352E+00	 3.762E+01	 2.298E-01	 2.276E-01
  19.806	 3.330E+02	 1.097E+00	 1.776E-01	-3.383E-02	 6.558E+01	-1.399E+00	 2.919E+01	 3.239E+00	 3.198E-02	 1.012E-01	 1.556E-02	 8.534E-03	 5.587E-02	 3.694E-02	 3.932E+01	 7.600E+00	 4.569E+00	-4.292E+00	 5.860E-01	 4.331E+00	 3.762E+01	 3.978E-01	 3.950E-01
  19.832	 3.415E+02	 1.115E+00	 1.781E-01	-3.256E-02	 6.515E+01	-1.328E+00	 2.918E+01	 3.234E+00	 3.240E-02	 1.014E-01	 1.664E-02	 6.924E-03	 3.078E-02	-1.676E-01	 3.875E+01	 1.042E+01	 4.499E+00	-3.677E+00	 8.478E-01	 4.295E+00	 3.745E+01	 1.938E-01	 1.905E-01
  19.856	 3.493E+02	 1.112E+00	 1.792E-01	-3.145E-02	 6.797E+01	-4.126E-01	 2.948E+01	 3.277E+00	 3.281E-02	 1.015E-01	 1.728E-02	 1.069E-03	 3.253E-02	-2.802E-01	 3.782E+01	 1.315E+01	 4.356E+00	-2.998E+00	 1.101E+00	 4.278E+00	 3.697E+01	-5.223E-01	-5.259E-01
  19.882	 3.578E+02	 1.091E+00	 1.801E-01	-2.957E-02	 4.478E+01	 3.136E+00	 3.040E+01	 3.421E+00	 3.327E-02	 1.015E-01	 1.735E-02	-4.598E-03	-6.573E-02	-2.691E-01	 3.603E+01	 1.596E+01	 4.364E+00	-2.404E+00	 1.326E+00	 4.246E+00	 3.665E+01	-1.168E+00	-1.171E+00
  19.906	 5.602E+00	 1.062E+00	 1.754E-01	-2.656E-02	 6.322E+01	-4.022E+00	 2.994E+01	 3.381E+00	 3.366E-02	 1.013E-01	 1.546E-02	-9.688E-03	-7.390E-02	 7.645E-02	 3.476E+01	 1.911E+01	 4.128E+00	-1.706E+00	 1.687E+00	 4.191E+00	 3.501E+01	-2.646E+00	-2.649E+00
  19.930	 1.342E+01	 1.006E+00	 1.671E-01	-2.524E-02	 7.083E+01	-2.875E+00	 2.814E+01	 2.787E+00	 3.400E-02	 1.011E-01	 1.223E-02	-3.529E-03	-1.961E-01	 4.021E-01	 3.579E+01	 2.028E+01	 4.617E+00	-1.297E+00	 1.685E+00	 3.825E+00	 3.470E+01	-2.411E+00	-2.414E+00
  19.954	 2.124E+01	 9.233E-01	 1.606E-01	-2.509E-02	 7.252E+01	 2.859E-01	 2.754E+01	 2.242E+00	 3.423E-02	 1.011E-01	 6.758E-03	 4.908E-03	-2.369E-01	 1.940E-01	 3.652E+01	 2.141E+01	 4.968E+00	-1.088E+00	 1.691E+00	 3.749E+00	 3.603E+01	-1.837E+00	-1.839E+00
  19.980	 2.970E+01	 8.147E-01	 1.591E-01	-2.446E-02	 7.000E+01	 1.803E+00	 2.909E+01	 2.229E+00	 3.433E-02	 1.013E-01	 1.182E-03	 1.706E-03	-1.837E-01	-4.279E-01	 3.563E+01	 2.396E+01	 4.863E+00	-6.777E-01	 1.923E+00	 4.124E+00	 3.712E+01	-2.508E+00	-2.509E+00
