
These predictions were generated by FAST (v7.01.00a-bjj, 16-Feb-2012) on 17-Feb-2012 at 14:00:22.
The aerodynamic calculations were made by AeroDyn (v13.00.01a-bjj, 16-Feb-2012).

 FAST certification Test #08: AOC 15/50 with many DOFs with fixed yaw error and steady wind.

Time	LSSGagPxa	TipDxb1	TipDxb2	TipDyb1	TipDyb2	RollDefl1	RollDefl2	PtchDefl1	PtchDefl2	Spn1ALxb1	Spn1ALyb1	HSShftV	TTDspRoll	TTDspPtch	YawBrRVxp	YawBrRVyp	YawBrRAxp	YawBrRAyp	RootFxb1	RootFyb1	Spn2MLxb1	Spn2MLyb1	LSShftFya	LSShftFza	YawBrFxn	YawBrFyn
(s)	(deg)	(m)	(m)	(m)	(m)	(deg)	(deg)	(deg)	(deg)	(m/s^2)	(m/s^2)	(rpm)	(deg)	(deg)	(deg/s)	(deg/s)	(deg/s^2)	(deg/s^2)	(kN)	(kN)	(kN·m)	(kN·m)	(kN)	(kN)	(kN)	(kN)
  10.000	 2.484E+02	 1.050E-02	-7.862E-03	 1.728E-03	-2.721E-03	-2.698E-02	 3.649E-02	 9.951E-02	-2.208E-01	 4.946E+00	 5.414E-01	 1.812E+03	 3.867E-02	 1.052E-01	-4.461E-03	-5.401E-02	-5.054E-01	-1.459E+00	 3.354E-01	 8.488E-01	-3.113E-01	 4.300E-01	 6.044E+00	 2.392E+00	 6.638E+00	-9.248E-02
  10.050	 2.676E+02	 6.118E-03	-8.636E-03	 2.365E-03	-4.885E-03	-3.601E-02	 6.715E-02	 1.138E-02	-2.259E-01	 5.041E+00	 6.038E-01	 1.812E+03	 3.801E-02	 1.015E-01	-2.096E-02	-7.903E-02	-3.447E-01	 1.778E-01	 2.397E-01	 9.437E-01	-3.818E-01	 2.410E-01	 6.457E+00	 1.895E-01	 6.350E+00	-1.292E-01
  10.100	 2.869E+02	 5.888E-04	-5.520E-03	 2.530E-03	-6.413E-03	-3.812E-02	 8.862E-02	-8.725E-02	-1.661E-01	 5.198E+00	 5.868E-01	 1.812E+03	 3.652E-02	 9.721E-02	-3.747E-02	-1.081E-01	-1.393E-01	-1.064E+00	 7.281E-02	 9.048E-01	-3.602E-01	 3.502E-02	 6.217E+00	-1.940E+00	 6.050E+00	-9.955E-02
  10.150	 3.061E+02	-4.990E-04	-3.387E-03	 1.622E-03	-7.611E-03	-2.527E-02	 1.054E-01	-1.054E-01	-1.277E-01	 5.327E+00	 6.413E-01	 1.812E+03	 3.479E-02	 9.219E-02	-3.243E-02	-7.789E-02	-2.624E-01	-8.652E-02	 1.667E-02	 6.971E-01	-2.110E-01	 4.580E-03	 5.209E+00	-3.946E+00	 5.666E+00	-1.242E-01
  10.200	 3.254E+02	 1.084E-04	-4.877E-03	 6.908E-04	-8.176E-03	-1.167E-02	 1.130E-01	-7.365E-02	-1.691E-01	 5.422E+00	 6.788E-01	 1.812E+03	 3.311E-02	 8.775E-02	-2.516E-02	-7.323E-02	 3.911E-01	 1.733E+00	-6.216E-02	 4.227E-01	-8.969E-02	 4.597E-02	 3.745E+00	-5.404E+00	 5.320E+00	-4.139E-02
  10.250	 3.446E+02	-3.737E-03	-6.892E-03	-1.033E-03	-7.657E-03	 1.279E-02	 1.053E-01	-1.392E-01	-2.227E-01	 5.501E+00	 6.696E-01	 1.812E+03	 3.168E-02	 8.502E-02	-3.219E-02	-4.240E-02	 4.546E-01	 1.493E+00	-2.292E-01	-9.522E-03	 2.013E-01	-8.095E-02	 1.704E+00	-6.247E+00	 5.336E+00	-1.239E-02
  10.300	 3.853E+00	-9.337E-03	-5.633E-03	-2.226E-03	-7.178E-03	 2.973E-02	 9.841E-02	-2.416E-01	-2.057E-01	 5.492E+00	 6.309E-01	 1.812E+03	 3.087E-02	 8.523E-02	-5.595E-03	 3.258E-02	 1.267E-01	 1.988E-01	-4.119E-01	-4.171E-01	 3.967E-01	-2.808E-01	-4.051E-01	-6.477E+00	 5.469E+00	 3.323E-02
  10.350	 2.310E+01	-1.048E-02	-2.167E-03	-4.201E-03	-5.899E-03	 5.755E-02	 8.045E-02	-2.616E-01	-1.376E-01	 5.445E+00	 5.971E-01	 1.812E+03	 3.095E-02	 8.756E-02	 1.114E-02	 7.278E-02	 3.599E-01	 1.390E+00	-4.744E-01	-8.851E-01	 6.953E-01	-3.005E-01	-2.519E+00	-5.905E+00	 5.515E+00	 5.971E-02
  10.400	 4.234E+01	-6.437E-03	-9.251E-04	-6.073E-03	-4.323E-03	 8.380E-02	 5.834E-02	-1.855E-01	-1.120E-01	 5.237E+00	 5.923E-01	 1.812E+03	 3.184E-02	 9.250E-02	 2.247E-02	 1.036E-01	 1.457E-01	-8.498E-01	-3.736E-01	-1.287E+00	 9.184E-01	-1.388E-01	-4.389E+00	-4.814E+00	 5.771E+00	 8.031E-02
  10.450	 6.158E+01	-2.279E-03	-3.386E-03	-7.353E-03	-2.043E-03	 1.019E-01	 2.705E-02	-1.019E-01	-1.300E-01	 5.190E+00	 5.603E-01	 1.812E+03	 3.339E-02	 9.735E-02	 4.205E-02	 1.135E-01	 2.315E-01	 8.739E-01	-3.021E-01	-1.570E+00	 1.054E+00	 1.413E-02	-5.748E+00	-3.040E+00	 5.874E+00	 2.782E-02
  10.500	 8.082E+01	-2.733E-03	-5.298E-03	-8.286E-03	-3.947E-04	 1.145E-01	 3.000E-03	-1.287E-01	-2.012E-01	 5.090E+00	 6.041E-01	 1.812E+03	 3.535E-02	 1.019E-01	 3.964E-02	 6.079E-02	 3.721E-01	-1.247E-01	-2.880E-01	-1.765E+00	 1.183E+00	-2.111E-02	-6.541E+00	-1.056E+00	 6.153E+00	 3.340E-02
  10.550	 1.001E+02	-5.300E-03	 1.720E-03	-7.832E-03	 5.070E-04	 1.078E-01	-1.029E-02	-1.930E-01	-8.923E-02	 5.035E+00	 6.207E-01	 1.812E+03	 3.713E-02	 1.044E-01	 1.958E-02	 1.691E-02	-6.053E-01	-1.381E+00	-3.180E-01	-1.732E+00	 1.116E+00	-1.295E-01	-6.416E+00	 1.139E+00	 6.504E+00	-2.915E-02
  10.600	 1.193E+02	-5.485E-03	 9.691E-03	-7.422E-03	 1.656E-03	 1.018E-01	-2.583E-02	-2.045E-01	 8.907E-02	 5.023E+00	 6.144E-01	 1.812E+03	 3.799E-02	 1.049E-01	 1.519E-02	 2.231E-03	-4.517E-01	-1.321E+00	-2.987E-01	-1.606E+00	 1.064E+00	-1.375E-01	-5.701E+00	 3.220E+00	 6.598E+00	-7.448E-02
  10.650	 1.385E+02	-2.584E-03	 9.283E-03	-6.288E-03	 1.918E-03	 8.588E-02	-2.900E-02	-1.469E-01	 1.008E-01	 5.048E+00	 5.766E-01	 1.812E+03	 3.816E-02	 1.033E-01	-4.604E-03	-5.308E-02	-2.271E-01	-2.680E-01	-2.146E-01	-1.305E+00	 8.762E-01	-3.375E-02	-4.251E+00	 4.850E+00	 6.462E+00	-9.197E-02
  10.700	 1.578E+02	-8.437E-04	 2.634E-03	-4.693E-03	 2.674E-03	 6.351E-02	-4.035E-02	-1.116E-01	-5.582E-02	 5.135E+00	 5.937E-01	 1.812E+03	 3.751E-02	 1.004E-01	-2.259E-02	-6.417E-02	-3.908E-01	-8.395E-01	-1.766E-01	-9.034E-01	 6.415E-01	 2.273E-02	-2.399E+00	 6.061E+00	 6.263E+00	-1.167E-01
  10.750	 1.770E+02	-2.272E-03	-8.011E-04	-2.719E-03	 2.111E-03	 3.645E-02	-3.263E-02	-1.124E-01	-1.299E-01	 5.331E+00	 6.179E-01	 1.812E+03	 3.611E-02	 9.608E-02	-2.732E-02	-9.106E-02	 2.101E-01	 1.089E+00	-2.263E-01	-4.412E-01	 3.867E-01	-5.104E-02	-2.618E-01	 6.466E+00	 5.870E+00	-1.129E-01
  10.800	 1.963E+02	-5.725E-03	 4.110E-04	-5.493E-04	 1.144E-03	 4.447E-03	-1.819E-02	-2.375E-01	-7.417E-02	 5.304E+00	 5.999E-01	 1.812E+03	 3.464E-02	 9.204E-02	-3.377E-02	-9.541E-02	 1.797E-01	-4.327E-01	-1.454E-01	 2.841E-02	 1.023E-01	-1.763E-01	 1.919E+00	 6.322E+00	 5.673E+00	-8.228E-02
  10.850	 2.155E+02	-2.290E-04	-9.585E-04	 1.412E-04	-1.864E-04	-5.038E-03	 9.945E-04	-1.228E-01	-8.155E-02	 5.344E+00	 6.325E-01	 1.812E+03	 3.327E-02	 8.817E-02	-3.075E-02	-6.162E-02	-5.358E-01	-1.486E-01	 2.113E-02	 3.568E-01	-1.254E-02	 4.367E-02	 3.768E+00	 5.307E+00	 5.536E+00	-5.087E-02
  10.900	 2.348E+02	 8.163E-03	-6.685E-03	 1.499E-03	-1.746E-03	-2.308E-02	 2.294E-02	 8.103E-02	-1.914E-01	 5.455E+00	 6.601E-01	 1.812E+03	 3.175E-02	 8.596E-02	-1.825E-02	-5.853E-03	 5.218E-01	 1.514E+00	 1.346E-01	 7.232E-01	-2.762E-01	 3.720E-01	 5.321E+00	 3.745E+00	 5.411E+00	-9.699E-03
  10.950	 2.540E+02	 8.838E-03	-1.088E-02	 1.812E-03	-3.103E-03	-2.759E-02	 4.188E-02	 8.956E-02	-2.779E-01	 5.439E+00	 6.792E-01	 1.812E+03	 3.117E-02	 8.659E-02	-5.569E-03	 2.691E-02	 3.798E-01	 8.165E-01	 1.786E-01	 8.710E-01	-3.037E-01	 3.740E-01	 6.172E+00	 1.806E+00	 5.494E+00	 4.980E-02
  11.000	 2.732E+02	 2.439E-03	-8.848E-03	 2.671E-03	-5.339E-03	-4.049E-02	 7.350E-02	-6.666E-02	-2.312E-01	 5.374E+00	 6.496E-01	 1.812E+03	 3.134E-02	 8.931E-02	 1.117E-02	 8.551E-02	 2.505E-01	 9.717E-01	 1.352E-01	 9.585E-01	-4.028E-01	 9.919E-02	 6.460E+00	-3.961E-01	 5.595E+00	 5.013E-02
  11.050	 2.925E+02	-1.656E-03	-3.882E-03	 2.418E-03	-6.731E-03	-3.684E-02	 9.320E-02	-1.421E-01	-1.304E-01	 5.330E+00	 6.175E-01	 1.812E+03	 3.216E-02	 9.352E-02	 2.408E-02	 7.590E-02	 5.207E-01	 4.828E-01	 3.440E-02	 8.603E-01	-3.240E-01	-4.995E-02	 5.982E+00	-2.499E+00	 5.746E+00	 6.784E-02
  11.100	 3.117E+02	-3.399E-04	-2.229E-03	 1.410E-03	-7.980E-03	-2.200E-02	 1.104E-01	-9.048E-02	-1.140E-01	 5.229E+00	 5.500E-01	 1.812E+03	 3.381E-02	 9.822E-02	 3.289E-02	 8.428E-02	-1.796E-01	-1.792E+00	-1.929E-02	 6.399E-01	-1.814E-01	 2.116E-02	 4.883E+00	-4.436E+00	 6.070E+00	 2.918E-02
  11.150	 3.310E+02	 3.643E-04	-4.244E-03	 2.453E-04	-8.095E-03	-5.239E-03	 1.117E-01	-6.218E-02	-1.619E-01	 5.078E+00	 5.954E-01	 1.812E+03	 3.568E-02	 1.015E-01	 3.871E-02	 6.178E-02	-5.886E-01	-9.503E-01	-6.306E-02	 3.159E-01	-2.363E-02	 6.367E-02	 3.222E+00	-5.720E+00	 6.233E+00	 1.134E-02
  11.200	 3.502E+02	-3.559E-03	-5.951E-03	-1.558E-03	-7.647E-03	 2.012E-02	 1.051E-01	-1.381E-01	-2.096E-01	 5.051E+00	 6.131E-01	 1.812E+03	 3.688E-02	 1.031E-01	 2.034E-02	 2.342E-02	 2.652E-01	 5.242E-01	-1.897E-01	-1.378E-01	 2.723E-01	-7.460E-02	 1.081E+00	-6.435E+00	 6.368E+00	-3.768E-02
  11.250	 9.452E+00	-8.152E-03	-4.065E-03	-2.808E-03	-6.939E-03	 3.769E-02	 9.500E-02	-2.271E-01	-1.775E-01	 5.004E+00	 6.194E-01	 1.812E+03	 3.774E-02	 1.037E-01	 7.239E-03	-1.988E-02	-3.784E-01	-1.187E+00	-3.195E-01	-5.576E-01	 4.663E-01	-2.396E-01	-1.059E+00	-6.405E+00	 6.538E+00	-6.275E-02
  11.300	 2.869E+01	-8.181E-03	-1.239E-03	-5.009E-03	-5.444E-03	 6.889E-02	 7.401E-02	-2.172E-01	-1.215E-01	 5.106E+00	 6.381E-01	 1.812E+03	 3.779E-02	 1.020E-01	-5.491E-03	-3.654E-02	-3.568E-01	 1.203E-02	-3.956E-01	-1.038E+00	 7.934E-01	-2.146E-01	-3.170E+00	-5.640E+00	 6.379E+00	-1.116E-01
  11.350	 4.794E+01	-4.907E-03	-1.381E-03	-6.497E-03	-3.776E-03	 8.983E-02	 5.056E-02	-1.533E-01	-1.241E-01	 5.118E+00	 6.288E-01	 1.812E+03	 3.702E-02	 9.945E-02	-2.337E-02	-7.972E-02	-8.878E-02	-9.504E-01	-3.421E-01	-1.385E+00	 9.602E-01	-8.268E-02	-4.875E+00	-4.321E+00	 6.150E+00	-9.852E-02
  11.400	 6.718E+01	-3.176E-03	-5.211E-03	-7.693E-03	-1.225E-03	 1.065E-01	 1.443E-02	-1.259E-01	-2.086E-01	 5.242E+00	 6.455E-01	 1.812E+03	 3.595E-02	 9.577E-02	-2.358E-02	-6.303E-02	-4.632E-01	-8.165E-01	-3.189E-01	-1.653E+00	 1.107E+00	-2.746E-02	-6.086E+00	-2.429E+00	 5.894E+00	-1.361E-01
  11.450	 8.642E+01	-4.821E-03	-3.618E-03	-8.173E-03	-2.777E-04	 1.129E-01	 1.781E-03	-1.690E-01	-1.523E-01	 5.366E+00	 6.185E-01	 1.812E+03	 3.460E-02	 9.165E-02	-2.187E-02	-7.457E-02	 1.006E-01	 1.058E+00	-3.708E-01	-1.770E+00	 1.176E+00	-9.876E-02	-6.568E+00	-4.218E-01	 5.562E+00	-6.585E-02
  11.500	 1.057E+02	-6.715E-03	 4.813E-03	-7.659E-03	 9.089E-04	 1.054E-01	-1.522E-02	-2.195E-01	-7.709E-04	 5.437E+00	 5.941E-01	 1.812E+03	 3.309E-02	 8.824E-02	-3.481E-02	-5.875E-02	 4.244E-01	 1.468E+00	-3.910E-01	-1.699E+00	 1.105E+00	-1.771E-01	-6.235E+00	 1.775E+00	 5.518E+00	-4.207E-02
  11.550	 1.249E+02	-5.364E-03	 9.724E-03	-7.143E-03	 1.713E-03	 9.791E-02	-2.686E-02	-2.006E-01	 8.075E-02	 5.427E+00	 6.361E-01	 1.812E+03	 3.194E-02	 8.714E-02	-1.653E-02	-1.965E-03	 7.823E-02	 2.477E-01	-3.273E-01	-1.534E+00	 1.023E+00	-1.295E-01	-5.332E+00	 3.693E+00	 5.581E+00	 4.832E-03
  11.600	 1.441E+02	-2.126E-03	 6.094E-03	-5.803E-03	 2.223E-03	 7.908E-02	-3.363E-02	-1.377E-01	 2.632E-02	 5.350E+00	 6.339E-01	 1.812E+03	 3.143E-02	 8.780E-02	-2.129E-03	 3.722E-02	 3.043E-01	 1.294E+00	-2.166E-01	-1.194E+00	 8.024E-01	-1.657E-02	-3.751E+00	 5.215E+00	 5.534E+00	 3.543E-02
  11.650	 1.634E+02	-1.197E-03	-3.485E-04	-4.218E-03	 2.732E-03	 5.684E-02	-4.087E-02	-1.180E-01	-1.017E-01	 5.304E+00	 6.709E-01	 1.812E+03	 3.163E-02	 9.097E-02	 8.498E-03	 6.883E-02	 1.804E-01	-7.399E-01	-2.003E-01	-7.839E-01	 5.813E-01	 1.132E-02	-1.859E+00	 6.242E+00	 5.676E+00	 7.062E-02
  11.700	 1.826E+02	-3.674E-03	-1.803E-03	-1.883E-03	 1.885E-03	 2.482E-02	-2.921E-02	-1.350E-01	-1.395E-01	 5.376E+00	 6.714E-01	 1.812E+03	 3.258E-02	 9.446E-02	 3.136E-02	 9.410E-02	 2.286E-01	 9.329E-01	-3.284E-01	-2.802E-01	 2.705E-01	-7.477E-02	 3.652E-01	 6.493E+00	 5.704E+00	 2.717E-02
  11.750	 2.019E+02	-4.797E-03	 6.010E-04	-3.972E-04	 9.334E-04	 3.136E-03	-1.519E-02	-1.876E-01	-6.851E-02	 5.294E+00	 6.436E-01	 1.812E+03	 3.409E-02	 9.823E-02	 3.491E-02	 5.593E-02	 5.299E-01	 5.231E-01	-2.163E-01	 1.159E-01	 9.265E-02	-1.192E-01	 2.451E+00	 6.142E+00	 5.926E+00	 5.163E-02
  11.800	 2.211E+02	 2.178E-03	-1.193E-03	 5.891E-04	-7.870E-04	-1.145E-02	 9.337E-03	-8.028E-02	-8.996E-02	 5.057E+00	 5.958E-01	 1.812E+03	 3.575E-02	 1.010E-01	 1.956E-02	 2.936E-02	-4.350E-01	-1.068E+00	 1.281E-01	 4.781E-01	-9.844E-02	 1.335E-01	 4.281E+00	 4.904E+00	 6.308E+00	-5.388E-03
  11.850	 2.404E+02	 9.368E-03	-6.425E-03	 1.702E-03	-2.141E-03	-2.653E-02	 2.851E-02	 8.077E-02	-1.856E-01	 5.021E+00	 5.528E-01	 1.812E+03	 3.680E-02	 1.025E-01	 2.236E-02	 2.893E-02	-3.303E-01	-1.038E+00	 2.869E-01	 7.945E-01	-3.114E-01	 3.973E-01	 5.685E+00	 3.231E+00	 6.455E+00	-4.552E-02
  11.900	 2.596E+02	 8.594E-03	-9.137E-03	 1.977E-03	-3.896E-03	-2.980E-02	 5.309E-02	 8.919E-02	-2.420E-01	 5.090E+00	 6.036E-01	 1.812E+03	 3.746E-02	 1.024E-01	 6.539E-03	-2.095E-02	-2.155E-01	-2.732E-01	 1.874E-01	 9.096E-01	-3.271E-01	 3.615E-01	 6.346E+00	 1.142E+00	 6.408E+00	-7.000E-02
  11.950	 2.788E+02	 2.274E-03	-6.676E-03	 2.686E-03	-5.928E-03	-4.049E-02	 8.170E-02	-6.148E-02	-1.927E-01	 5.100E+00	 5.631E-01	 1.812E+03	 3.744E-02	 1.013E-01	-9.057E-03	-2.927E-02	-4.073E-01	-1.152E+00	 1.297E-01	 9.537E-01	-4.019E-01	 9.526E-02	 6.438E+00	-1.065E+00	 6.315E+00	-9.916E-02
  12.000	 2.981E+02	-6.251E-04	-3.064E-03	 2.049E-03	-7.131E-03	-3.182E-02	 9.879E-02	-1.288E-01	-1.157E-01	 5.165E+00	 6.547E-01	 1.812E+03	 3.667E-02	 9.835E-02	-1.478E-02	-6.388E-02	 2.142E-01	 1.225E+00	 9.552E-02	 7.909E-01	-2.771E-01	-1.362E-02	 5.678E+00	-3.122E+00	 5.967E+00	-1.154E-01
  12.050	 3.173E+02	 7.691E-04	-3.533E-03	 1.088E-03	-8.189E-03	-1.738E-02	 1.132E-01	-6.572E-02	-1.439E-01	 5.252E+00	 6.189E-01	 1.812E+03	 3.571E-02	 9.522E-02	-2.566E-02	-8.630E-02	 1.580E-01	-4.050E-01	-2.448E-03	 5.548E-01	-1.483E-01	 6.023E-02	 4.438E+00	-4.907E+00	 5.835E+00	-9.029E-02
  12.100	 3.366E+02	-9.465E-04	-6.122E-03	-3.138E-04	-7.855E-03	 2.795E-03	 1.082E-01	-8.097E-02	-2.036E-01	 5.308E+00	 6.656E-01	 1.812E+03	 3.458E-02	 9.154E-02	-3.093E-02	-7.112E-02	-6.624E-01	-6.474E-01	-1.451E-01	 1.791E-01	 7.311E-02	 2.064E-02	 2.592E+00	-5.970E+00	 5.754E+00	-7.298E-02
  12.150	 3.558E+02	-6.643E-03	-6.624E-03	-1.825E-03	-7.461E-03	 2.403E-02	 1.024E-01	-1.915E-01	-2.229E-01	 5.412E+00	 6.531E-01	 1.812E+03	 3.301E-02	 8.876E-02	-2.094E-02	-1.948E-02	 3.262E-01	 1.023E+00	-3.245E-01	-2.551E-01	 3.281E-01	-1.849E-01	 4.603E-01	-6.495E+00	 5.598E+00	-3.642E-02
  12.200	 1.505E+01	-1.059E-02	-3.604E-03	-3.246E-03	-6.529E-03	 4.388E-02	 8.933E-02	-2.729E-01	-1.652E-01	 5.409E+00	 6.170E-01	 1.812E+03	 3.206E-02	 8.806E-02	-1.528E-02	-4.508E-03	 3.797E-01	 1.059E+00	-4.281E-01	-6.858E-01	 5.515E-01	-3.206E-01	-1.646E+00	-6.212E+00	 5.568E+00	 2.299E-02
  12.250	 3.429E+01	-8.671E-03	-1.063E-03	-5.441E-03	-4.977E-03	 7.495E-02	 6.753E-02	-2.277E-01	-1.151E-01	 5.384E+00	 6.071E-01	 1.812E+03	 3.171E-02	 8.938E-02	-1.384E-03	 5.325E-02	 1.280E-01	 5.566E-01	-4.338E-01	-1.144E+00	 8.559E-01	-2.257E-01	-3.679E+00	-5.334E+00	 5.608E+00	 3.222E-02
  12.300	 5.353E+01	-4.045E-03	-1.924E-03	-6.775E-03	-3.203E-03	 9.384E-02	 4.267E-02	-1.323E-01	-1.283E-01	 5.352E+00	 5.655E-01	 1.812E+03	 3.189E-02	 9.193E-02	 1.323E-02	 5.197E-02	 5.957E-01	 9.374E-01	-3.586E-01	-1.453E+00	 9.889E-01	-4.433E-02	-5.220E+00	-3.825E+00	 5.648E+00	 5.719E-02
  12.350	 7.278E+01	-2.690E-03	-6.286E-03	-8.011E-03	-7.044E-04	 1.107E-01	 6.393E-03	-1.246E-01	-2.575E-01	 5.206E+00	 6.362E-01	 1.812E+03	 3.301E-02	 9.560E-02	 2.284E-02	 6.336E-02	-4.220E-02	-1.563E+00	-2.888E-01	-1.712E+00	 1.147E+00	-1.397E-02	-6.322E+00	-1.899E+00	 5.906E+00	 3.725E-02
  12.400	 9.202E+01	-4.536E-03	-1.990E-03	-8.046E-03	-4.616E-05	 1.110E-01	-2.024E-03	-1.688E-01	-1.420E-01	 5.150E+00	 6.318E-01	 1.812E+03	 3.454E-02	 9.838E-02	 3.323E-02	 5.827E-02	-5.630E-01	-8.268E-01	-3.345E-01	-1.760E+00	 1.146E+00	-9.291E-02	-6.551E+00	 1.825E-01	 6.058E+00	 2.792E-02
  12.450	 1.113E+02	-5.918E-03	 7.304E-03	-7.625E-03	 1.330E-03	 1.048E-01	-2.061E-02	-2.080E-01	 6.721E-02	 5.124E+00	 5.825E-01	 1.812E+03	 3.562E-02	 1.002E-01	 2.224E-02	 3.756E-02	 3.709E-01	 7.922E-01	-3.349E-01	-1.671E+00	 1.097E+00	-1.509E-01	-6.070E+00	 2.384E+00	 6.199E+00	-1.334E-02
  12.500	 1.305E+02	-3.896E-03	 1.008E-02	-6.868E-03	 1.758E-03	 9.404E-02	-2.718E-02	-1.729E-01	 9.979E-02	 5.100E+00	 6.070E-01	 1.812E+03	 3.670E-02	 1.017E-01	 1.470E-02	 4.933E-03	-2.244E-01	-8.974E-01	-2.581E-01	-1.452E+00	 9.717E-01	-7.949E-02	-4.936E+00	 4.196E+00	 6.413E+00	-3.418E-02
  12.550	 1.497E+02	-1.182E-03	 4.868E-03	-5.359E-03	 2.489E-03	 7.281E-02	-3.791E-02	-1.208E-01	-1.862E-02	 5.090E+00	 5.931E-01	 1.812E+03	 3.721E-02	 1.014E-01	 4.475E-03	-6.077E-03	-2.964E-01	 1.127E-01	-1.657E-01	-1.077E+00	 7.334E-01	 1.278E-02	-3.201E+00	 5.625E+00	 6.339E+00	-9.083E-02
  12.600	 1.690E+02	-1.421E-03	-6.681E-05	-3.672E-03	 2.494E-03	 4.909E-02	-3.770E-02	-1.252E-01	-1.034E-01	 5.091E+00	 5.958E-01	 1.812E+03	 3.702E-02	 1.004E-01	-1.104E-02	-5.337E-02	-9.281E-02	-1.050E+00	-2.458E-01	-6.347E-01	 5.111E-01	 4.579E-03	-1.188E+00	 6.408E+00	 6.192E+00	-8.819E-02
  12.650	 1.882E+02	-4.980E-03	-1.735E-05	-1.136E-03	 1.492E-03	 1.305E-02	-2.333E-02	-2.096E-01	-9.144E-02	 5.178E+00	 5.799E-01	 1.812E+03	 3.652E-02	 9.795E-02	-1.350E-02	-4.388E-02	-5.468E-01	-1.395E+00	-1.713E-01	-1.309E-01	 1.650E-01	-1.504E-01	 1.057E+00	 6.483E+00	 6.046E+00	-1.320E-01
  12.700	 2.075E+02	-2.703E-03	 7.634E-04	-2.789E-04	 5.050E-04	 1.835E-03	-9.035E-03	-1.332E-01	-5.998E-02	 5.374E+00	 6.204E-01	 1.812E+03	 3.561E-02	 9.446E-02	-1.471E-02	-6.094E-02	-3.547E-02	 1.026E+00	-1.928E-01	 2.088E-01	 7.093E-02	-3.067E-02	 3.023E+00	 5.837E+00	 5.736E+00	-8.030E-02
  12.750	 2.267E+02	 5.290E-03	-3.515E-03	 1.018E-03	-1.267E-03	-1.663E-02	 1.603E-02	 1.276E-02	-1.367E-01	 5.342E+00	 6.376E-01	 1.812E+03	 3.427E-02	 9.121E-02	-3.401E-02	-6.626E-02	 4.066E-01	 1.365E+00	 9.154E-02	 5.912E-01	-1.861E-01	 2.620E-01	 4.750E+00	 4.425E+00	 5.685E+00	-6.447E-02
  12.800	 2.460E+02	 9.447E-03	-9.264E-03	 1.728E-03	-2.414E-03	-2.710E-02	 3.230E-02	 7.379E-02	-2.422E-01	 5.275E+00	 6.146E-01	 1.812E+03	 3.308E-02	 8.960E-02	-2.086E-02	-2.088E-02	-8.629E-02	-3.084E-01	 3.019E-01	 8.272E-01	-3.084E-01	 3.898E-01	 5.914E+00	 2.662E+00	 5.737E+00	-1.725E-02
  12.850	 2.652E+02	 5.896E-03	-1.020E-02	 2.277E-03	-4.478E-03	-3.447E-02	 6.146E-02	 1.937E-02	-2.549E-01	 5.375E+00	 6.784E-01	 1.812E+03	 3.220E-02	 8.900E-02	-1.158E-02	 1.254E-02	 2.498E-01	 1.383E+00	 1.594E-01	 9.321E-01	-3.625E-01	 2.436E-01	 6.405E+00	 5.134E-01	 5.601E+00	 9.880E-03
  12.900	 2.844E+02	-8.850E-06	-6.312E-03	 2.663E-03	-6.197E-03	-3.983E-02	 8.555E-02	-9.303E-02	-1.824E-01	 5.408E+00	 5.945E-01	 1.812E+03	 3.186E-02	 9.079E-02	-2.874E-03	 3.648E-02	 1.820E-01	-7.698E-01	 1.191E-02	 9.260E-01	-3.761E-01	 1.646E-02	 6.302E+00	-1.629E+00	 5.664E+00	 5.745E-02
  12.950	 3.037E+02	-1.478E-03	-2.733E-03	 1.820E-03	-7.458E-03	-2.824E-02	 1.033E-01	-1.311E-01	-1.120E-01	 5.361E+00	 6.278E-01	 1.812E+03	 3.226E-02	 9.296E-02	 2.040E-02	 7.330E-02	 1.656E-01	 7.636E-01	 1.113E-02	 7.318E-01	-2.332E-01	-3.653E-02	 5.377E+00	-3.669E+00	 5.643E+00	 2.177E-02
  13.000	 3.229E+02	 1.329E-04	-3.494E-03	 8.976E-04	-8.250E-03	-1.472E-02	 1.141E-01	-7.878E-02	-1.422E-01	 5.250E+00	 5.996E-01	 1.812E+03	 3.330E-02	 9.576E-02	 2.800E-02	 4.526E-02	 5.428E-01	 7.895E-01	-2.601E-02	 4.765E-01	-1.205E-01	 4.250E-02	 4.000E+00	-5.257E+00	 5.769E+00	 5.903E-02
  13.050	 3.422E+02	-2.031E-03	-5.782E-03	-8.505E-04	-7.760E-03	 1.024E-02	 1.068E-01	-1.057E-01	-2.022E-01	 5.178E+00	 6.118E-01	 1.812E+03	 3.460E-02	 9.803E-02	 1.593E-02	 2.753E-02	-1.134E-01	-2.740E-01	-1.580E-01	 5.082E-02	 1.617E-01	-1.822E-02	 1.993E+00	-6.186E+00	 6.110E+00	 1.506E-02
  13.100	 1.406E+00	-6.909E-03	-5.287E-03	-2.189E-03	-7.339E-03	 2.921E-02	 1.006E-01	-1.943E-01	-2.011E-01	 5.121E+00	 6.095E-01	 1.812E+03	 3.569E-02	 1.000E-01	 2.342E-02	 3.846E-02	-3.442E-01	-1.196E+00	-3.183E-01	-3.719E-01	 3.747E-01	-1.932E-01	-1.538E-01	-6.530E+00	 6.332E+00	-1.911E-02
  13.150	 2.065E+01	-8.985E-03	-2.182E-03	-4.023E-03	-6.114E-03	 5.493E-02	 8.345E-02	-2.370E-01	-1.391E-01	 5.102E+00	 6.133E-01	 1.812E+03	 3.655E-02	 1.008E-01	 1.480E-02	 6.853E-03	-9.763E-02	 4.569E-02	-3.890E-01	-8.361E-01	 6.555E-01	-2.537E-01	-2.293E+00	-6.022E+00	 6.307E+00	-4.735E-02
  13.200	 3.989E+01	-6.403E-03	-8.077E-04	-5.995E-03	-4.525E-03	 8.264E-02	 6.115E-02	-1.878E-01	-1.106E-01	 5.051E+00	 6.344E-01	 1.812E+03	 3.698E-02	 1.010E-01	-5.638E-05	-7.905E-03	-3.469E-01	-1.199E+00	-3.457E-01	-1.259E+00	 9.101E-01	-1.437E-01	-4.227E+00	-4.974E+00	 6.289E+00	-7.781E-02
  13.250	 5.913E+01	-2.994E-03	-2.646E-03	-7.197E-03	-2.407E-03	 9.969E-02	 3.224E-02	-1.155E-01	-1.131E-01	 5.166E+00	 5.930E-01	 1.812E+03	 3.679E-02	 9.939E-02	-2.784E-03	-3.440E-02	 7.062E-02	 8.687E-01	-3.172E-01	-1.542E+00	 1.039E+00	-9.703E-03	-5.615E+00	-3.255E+00	 6.019E+00	-1.131E-01
  13.300	 7.837E+01	-3.470E-03	-5.561E-03	-8.223E-03	-4.545E-04	 1.137E-01	 3.373E-03	-1.425E-01	-2.244E-01	 5.233E+00	 6.369E-01	 1.812E+03	 3.631E-02	 9.723E-02	-1.560E-02	-6.994E-02	 1.878E-01	-3.347E-01	-3.152E-01	-1.758E+00	 1.182E+00	-4.685E-02	-6.495E+00	-1.278E+00	 5.942E+00	-9.036E-02
  13.350	 9.762E+01	-5.911E-03	 6.921E-04	-7.850E-03	 2.951E-04	 1.081E-01	-7.345E-03	-2.012E-01	-1.103E-01	 5.284E+00	 6.369E-01	 1.812E+03	 3.552E-02	 9.409E-02	-2.740E-02	-6.685E-02	-6.724E-01	-6.952E-01	-3.705E-01	-1.739E+00	 1.125E+00	-1.443E-01	-6.449E+00	 8.668E-01	 5.907E+00	-8.762E-02
  13.400	 1.169E+02	-6.338E-03	 9.033E-03	-7.448E-03	 1.577E-03	 1.022E-01	-2.435E-02	-2.186E-01	 9.070E-02	 5.329E+00	 6.079E-01	 1.812E+03	 3.408E-02	 9.128E-02	-2.188E-02	-3.058E-02	 1.574E-01	 6.545E-01	-3.525E-01	-1.624E+00	 1.075E+00	-1.657E-01	-5.806E+00	 2.962E+00	 5.759E+00	-5.829E-02
  13.450	 1.361E+02	-3.439E-03	 9.057E-03	-6.445E-03	 1.837E-03	 8.813E-02	-2.782E-02	-1.619E-01	 9.835E-02	 5.331E+00	 6.144E-01	 1.812E+03	 3.301E-02	 8.995E-02	-1.926E-02	-2.050E-02	 2.113E-01	 5.942E-01	-2.653E-01	-1.351E+00	 9.060E-01	-6.125E-02	-4.467E+00	 4.622E+00	 5.688E+00	-8.385E-04
  13.500	 1.553E+02	-1.129E-03	 2.122E-03	-4.895E-03	 2.703E-03	 6.637E-02	-4.091E-02	-1.162E-01	-7.152E-02	 5.336E+00	 6.505E-01	 1.812E+03	 3.229E-02	 9.016E-02	-9.772E-03	 3.171E-02	 1.503E-01	 6.221E-01	-2.007E-01	-9.599E-01	 6.708E-01	 1.670E-02	-2.669E+00	 5.909E+00	 5.645E+00	 1.338E-02
  13.550	 1.746E+02	-1.994E-03	-1.843E-03	-3.070E-03	 2.314E-03	 4.096E-02	-3.545E-02	-1.235E-01	-1.488E-01	 5.139E+00	 6.829E-01	 1.812E+03	 3.202E-02	 9.148E-02	 3.486E-03	 2.636E-02	 5.938E-01	 1.141E+00	-1.991E-01	-4.968E-01	 4.530E-01	-1.086E-02	-5.786E-01	 6.439E+00	 5.618E+00	 4.250E-02
  13.600	 1.938E+02	-5.854E-03	-3.134E-04	-6.850E-04	 1.317E-03	 6.123E-03	-2.061E-02	-2.489E-01	-8.764E-02	 5.235E+00	 6.372E-01	 1.812E+03	 3.266E-02	 9.402E-02	 1.377E-02	 4.071E-02	 7.921E-02	-1.295E+00	-1.173E-01	-2.154E-02	 1.134E-01	-1.908E-01	 1.625E+00	 6.399E+00	 5.814E+00	 4.081E-02
  13.650	 2.131E+02	-1.344E-03	-2.324E-04	 4.753E-06	 6.627E-05	-2.900E-03	-2.635E-03	-1.354E-01	-7.040E-02	 5.234E+00	 6.321E-01	 1.812E+03	 3.381E-02	 9.614E-02	 2.540E-02	 4.983E-02	-5.615E-01	-8.210E-01	-3.181E-02	 3.079E-01	 1.659E-02	 4.721E-03	 3.529E+00	 5.506E+00	 5.954E+00	 3.421E-02
  13.700	 2.323E+02	 7.335E-03	-4.724E-03	 1.404E-03	-1.653E-03	-2.162E-02	 2.151E-02	 6.885E-02	-1.584E-01	 5.248E+00	 6.249E-01	 1.812E+03	 3.467E-02	 9.785E-02	 2.181E-02	 4.374E-02	 4.319E-01	 9.398E-01	 1.124E-01	 6.904E-01	-2.567E-01	 3.438E-01	 5.169E+00	 3.977E+00	 6.063E+00	 3.198E-03
  13.750	 2.516E+02	 9.542E-03	-9.049E-03	 1.784E-03	-2.954E-03	-2.744E-02	 3.972E-02	 9.359E-02	-2.451E-01	 5.125E+00	 5.953E-01	 1.812E+03	 3.577E-02	 9.975E-02	 1.662E-02	 1.647E-02	-1.294E-01	-6.630E-01	 2.568E-01	 8.640E-01	-3.076E-01	 3.968E-01	 6.130E+00	 2.069E+00	 6.289E+00	-1.107E-02
  13.800	 2.708E+02	 4.387E-03	-8.102E-03	 2.540E-03	-5.205E-03	-3.870E-02	 7.165E-02	-3.093E-02	-2.160E-01	 5.080E+00	 6.018E-01	 1.812E+03	 3.649E-02	 1.004E-01	 1.107E-02	 1.702E-02	-2.384E-01	 1.123E-01	 2.162E-01	 9.566E-01	-3.974E-01	 1.711E-01	 6.476E+00	-1.538E-01	 6.273E+00	-6.861E-02
  13.850	 2.900E+02	-3.379E-05	-4.125E-03	 2.441E-03	-6.636E-03	-3.703E-02	 9.182E-02	-1.056E-01	-1.371E-01	 5.121E+00	 5.861E-01	 1.812E+03	 3.667E-02	 1.003E-01	-2.136E-03	-3.283E-02	 2.330E-02	-6.631E-01	 7.717E-02	 8.807E-01	-3.413E-01	 1.022E-02	 6.096E+00	-2.283E+00	 6.170E+00	-7.206E-02
  13.900	 3.093E+02	 1.695E-04	-2.633E-03	 1.449E-03	-7.853E-03	-2.263E-02	 1.086E-01	-8.434E-02	-1.191E-01	 5.173E+00	 5.877E-01	 1.812E+03	 3.664E-02	 9.902E-02	-6.427E-03	-2.947E-02	-5.693E-01	-1.729E+00	 1.485E-02	 6.613E-01	-1.902E-01	 3.430E-02	 5.022E+00	-4.254E+00	 6.121E+00	-1.209E-01
  13.950	 3.285E+02	 5.306E-04	-4.681E-03	 4.305E-04	-8.143E-03	-7.939E-03	 1.125E-01	-6.274E-02	-1.676E-01	 5.188E+00	 6.542E-01	 1.812E+03	 3.615E-02	 9.632E-02	-8.157E-03	-5.041E-02	-3.160E-01	 2.160E-01	-5.214E-02	 3.616E-01	-5.380E-02	 6.543E-02	 3.444E+00	-5.600E+00	 5.880E+00	-8.400E-02
  14.000	 3.478E+02	-3.745E-03	-6.650E-03	-1.355E-03	-7.643E-03	 1.725E-02	 1.051E-01	-1.422E-01	-2.201E-01	 5.295E+00	 6.670E-01	 1.812E+03	 3.501E-02	 9.323E-02	-2.814E-02	-5.766E-02	 4.243E-01	 1.500E+00	-2.103E-01	-8.667E-02	 2.463E-01	-8.191E-02	 1.339E+00	-6.356E+00	 5.794E+00	-7.568E-02
  14.050	 7.004E+00	-9.094E-03	-5.028E-03	-2.522E-03	-7.038E-03	 3.378E-02	 9.642E-02	-2.410E-01	-1.950E-01	 5.325E+00	 6.414E-01	 1.812E+03	 3.392E-02	 9.149E-02	-2.263E-02	-3.431E-02	-9.884E-02	-2.435E-01	-3.812E-01	-4.956E-01	 4.344E-01	-2.730E-01	-7.757E-01	-6.436E+00	 5.840E+00	-3.475E-02
  14.100	 2.625E+01	-9.775E-03	-1.829E-03	-4.623E-03	-5.631E-03	 6.353E-02	 7.666E-02	-2.457E-01	-1.320E-01	 5.397E+00	 6.206E-01	 1.812E+03	 3.296E-02	 9.037E-02	-1.459E-02	 5.376E-04	 1.268E-01	 1.079E+00	-4.636E-01	-9.702E-01	 7.512E-01	-2.721E-01	-2.879E+00	-5.755E+00	 5.689E+00	-1.331E-02
  14.150	 4.549E+01	-6.116E-03	-1.277E-03	-6.270E-03	-4.025E-03	 8.662E-02	 5.415E-02	-1.773E-01	-1.193E-01	 5.300E+00	 6.054E-01	 1.812E+03	 3.232E-02	 9.116E-02	-1.017E-02	 1.370E-02	 2.382E-01	-5.327E-01	-3.812E-01	-1.339E+00	 9.400E-01	-1.257E-01	-4.646E+00	-4.555E+00	 5.679E+00	 3.913E-02
  14.200	 6.473E+01	-3.013E-03	-4.318E-03	-7.506E-03	-1.587E-03	 1.039E-01	 2.013E-02	-1.196E-01	-1.679E-01	 5.303E+00	 5.942E-01	 1.812E+03	 3.239E-02	 9.246E-02	 1.186E-02	 5.316E-02	 1.993E-02	 3.280E-01	-3.233E-01	-1.613E+00	 1.080E+00	-1.684E-02	-5.927E+00	-2.714E+00	 5.636E+00	 6.981E-03
  14.250	 8.397E+01	-3.797E-03	-4.265E-03	-8.237E-03	-3.532E-04	 1.139E-01	 2.753E-03	-1.481E-01	-1.683E-01	 5.285E+00	 6.020E-01	 1.812E+03	 3.302E-02	 9.430E-02	 2.157E-02	 3.393E-02	 4.957E-01	 9.345E-01	-3.378E-01	-1.769E+00	 1.181E+00	-5.929E-02	-6.558E+00	-7.218E-01	 5.689E+00	 5.531E-02
  14.300	 1.032E+02	-5.851E-03	 3.200E-03	-7.735E-03	 7.532E-04	 1.064E-01	-1.342E-02	-2.031E-01	-4.732E-02	 5.236E+00	 6.071E-01	 1.812E+03	 3.396E-02	 9.610E-02	 1.083E-02	 2.469E-02	 6.100E-02	 1.037E-01	-3.510E-01	-1.714E+00	 1.107E+00	-1.471E-01	-6.324E+00	 1.487E+00	 5.989E+00	 2.105E-02
  14.350	 1.225E+02	-5.213E-03	 9.392E-03	-7.291E-03	 1.725E-03	 9.995E-02	-2.699E-02	-1.991E-01	 7.559E-02	 5.168E+00	 6.287E-01	 1.812E+03	 3.489E-02	 9.803E-02	 2.133E-02	 4.013E-02	-2.177E-01	-7.738E-01	-3.008E-01	-1.569E+00	 1.044E+00	-1.265E-01	-5.511E+00	 3.488E+00	 6.208E+00	-3.551E-03
  14.400	 1.417E+02	-2.151E-03	 7.605E-03	-6.022E-03	 2.092E-03	 8.215E-02	-3.155E-02	-1.387E-01	 6.413E-02	 5.106E+00	 6.001E-01	 1.812E+03	 3.578E-02	 9.927E-02	 1.605E-02	 1.756E-02	-1.085E-01	 1.209E-02	-2.010E-01	-1.243E+00	 8.338E-01	-1.878E-02	-3.978E+00	 5.071E+00	 6.219E+00	-3.001E-02
  14.450	 1.609E+02	-8.708E-04	 1.388E-03	-4.433E-03	 2.701E-03	 5.986E-02	-4.056E-02	-1.119E-01	-7.323E-02	 5.126E+00	 6.133E-01	 1.812E+03	 3.637E-02	 1.003E-01	 6.020E-03	 9.853E-03	-2.896E-01	-1.351E+00	-1.796E-01	-8.357E-01	 6.073E-01	 2.088E-02	-2.090E+00	 6.186E+00	 6.242E+00	-5.414E-02
  14.500	 1.802E+02	-2.857E-03	-8.173E-04	-2.251E-03	 1.948E-03	 3.004E-02	-3.031E-02	-1.176E-01	-1.286E-01	 5.328E+00	 6.120E-01	 1.812E+03	 3.653E-02	 9.949E-02	 5.129E-03	-1.301E-02	 6.010E-02	 9.966E-01	-3.260E-01	-3.439E-01	 3.198E-01	-3.767E-02	 1.157E-01	 6.495E+00	 6.008E+00	-1.049E-01
  14.550	 1.994E+02	-5.097E-03	 9.782E-04	-4.462E-04	 9.970E-04	 3.538E-03	-1.612E-02	-2.045E-01	-6.216E-02	 5.255E+00	 5.896E-01	 1.812E+03	 3.642E-02	 9.813E-02	-6.922E-03	-5.443E-02	 2.539E-01	 1.102E-02	-1.888E-01	 8.218E-02	 9.404E-02	-1.394E-01	 2.243E+00	 6.227E+00	 5.969E+00	-8.073E-02
  14.600	 2.187E+02	 1.189E-03	-9.506E-04	 3.846E-04	-5.561E-04	-8.625E-03	 6.163E-03	-1.016E-01	-8.252E-02	 5.157E+00	 5.877E-01	 1.812E+03	 3.598E-02	 9.570E-02	-2.286E-02	-6.159E-02	-6.675E-01	-9.040E-01	 9.894E-02	 4.254E-01	-6.121E-02	 9.218E-02	 4.074E+00	 5.072E+00	 6.010E+00	-9.036E-02
  14.650	 2.379E+02	 9.031E-03	-6.672E-03	 1.616E-03	-1.975E-03	-2.509E-02	 2.617E-02	 8.278E-02	-1.906E-01	 5.243E+00	 5.973E-01	 1.812E+03	 3.482E-02	 9.323E-02	-1.752E-02	-2.548E-02	-1.154E-02	 1.570E-01	 2.336E-01	 7.638E-01	-2.996E-01	 3.904E-01	 5.536E+00	 3.450E+00	 5.895E+00	-6.983E-02
  14.700	 2.572E+02	 8.860E-03	-1.027E-02	 1.885E-03	-3.524E-03	-2.846E-02	 4.782E-02	 9.572E-02	-2.652E-01	 5.336E+00	 6.615E-01	 1.812E+03	 3.380E-02	 9.160E-02	-1.983E-02	-2.956E-02	 2.101E-01	 8.226E-01	 1.722E-01	 8.906E-01	-3.146E-01	 3.743E-01	 6.266E+00	 1.432E+00	 5.773E+00	-2.152E-02
  14.750	 2.764E+02	 2.110E-03	-8.184E-03	 2.689E-03	-5.642E-03	-4.062E-02	 7.772E-02	-6.822E-02	-2.199E-01	 5.331E+00	 6.183E-01	 1.812E+03	 3.299E-02	 9.138E-02	-1.444E-02	 1.537E-02	 1.115E-03	 8.985E-02	 1.160E-01	 9.560E-01	-4.020E-01	 8.869E-02	 6.450E+00	-7.646E-01	 5.725E+00	-4.748E-03
  14.800	 2.956E+02	-1.632E-03	-3.867E-03	 2.253E-03	-6.907E-03	-3.465E-02	 9.570E-02	-1.467E-01	-1.292E-01	 5.365E+00	 6.521E-01	 1.812E+03	 3.243E-02	 9.175E-02	-1.660E-03	 1.319E-02	 5.963E-01	 1.365E+00	 4.884E-02	 8.242E-01	-2.998E-01	-5.029E-02	 5.811E+00	-2.825E+00	 5.626E+00	 2.539E-02
  14.850	 3.149E+02	-2.315E-04	-3.108E-03	 1.266E-03	-8.090E-03	-1.990E-02	 1.118E-01	-8.577E-02	-1.339E-01	 5.330E+00	 5.746E-01	 1.812E+03	 3.270E-02	 9.344E-02	 5.646E-03	 2.017E-02	 1.997E-01	-1.006E+00	-3.136E-02	 5.964E-01	-1.635E-01	 2.464E-02	 4.649E+00	-4.695E+00	 5.756E+00	 3.367E-02
  14.900	 3.341E+02	-6.122E-04	-5.123E-03	-2.271E-05	-7.959E-03	-1.334E-03	 1.097E-01	-7.579E-02	-1.821E-01	 5.246E+00	 6.144E-01	 1.812E+03	 3.348E-02	 9.477E-02	 1.594E-02	 3.234E-02	-5.907E-01	-8.511E-01	-1.249E-01	 2.460E-01	 2.632E-02	 3.270E-02	 2.892E+00	-5.856E+00	 5.891E+00	 3.224E-02
  14.950	 3.534E+02	-5.218E-03	-6.087E-03	-1.707E-03	-7.562E-03	 2.229E-02	 1.039E-01	-1.666E-01	-2.119E-01	 5.235E+00	 6.127E-01	 1.812E+03	 3.402E-02	 9.604E-02	 1.825E-02	 4.290E-02	 4.144E-01	 8.791E-01	-2.628E-01	-2.005E-01	 3.042E-01	-1.330E-01	 7.446E-01	-6.479E+00	 5.974E+00	 1.158E-02
  15.000	 1.260E+01	-9.263E-03	-3.638E-03	-3.049E-03	-6.727E-03	 4.107E-02	 9.207E-02	-2.492E-01	-1.668E-01	 5.152E+00	 6.026E-01	 1.812E+03	 3.496E-02	 9.787E-02	 1.606E-02	 2.107E-02	 1.494E-02	-2.454E-01	-3.629E-01	-6.278E-01	 5.108E-01	-2.764E-01	-1.386E+00	-6.309E+00	 6.164E+00	 5.721E-03
  15.050	 3.184E+01	-8.053E-03	-1.026E-03	-5.297E-03	-5.187E-03	 7.291E-02	 7.041E-02	-2.158E-01	-1.168E-01	 5.163E+00	 6.186E-01	 1.812E+03	 3.575E-02	 9.904E-02	 1.318E-02	 2.910E-02	-1.960E-01	 9.560E-02	-3.978E-01	-1.102E+00	 8.323E-01	-2.065E-01	-3.471E+00	-5.476E+00	 6.187E+00	-4.869E-02
  15.100	 5.109E+01	-3.997E-03	-1.544E-03	-6.691E-03	-3.463E-03	 9.261E-02	 4.618E-02	-1.337E-01	-1.267E-01	 5.124E+00	 6.007E-01	 1.812E+03	 3.614E-02	 9.958E-02	 4.793E-03	-1.580E-02	 1.086E-01	-4.127E-01	-3.299E-01	-1.427E+00	 9.780E-01	-4.625E-02	-5.095E+00	-4.044E+00	 6.120E+00	-5.671E-02
  15.150	 7.033E+01	-2.621E-03	-5.541E-03	-7.911E-03	-9.097E-04	 1.094E-01	 9.474E-03	-1.202E-01	-2.355E-01	 5.138E+00	 6.559E-01	 1.812E+03	 3.646E-02	 9.919E-02	 2.987E-04	-1.572E-02	-5.178E-01	-1.864E+00	-2.861E-01	-1.693E+00	 1.132E+00	-1.124E-02	-6.240E+00	-2.117E+00	 6.141E+00	-1.050E-01
  15.200	 8.957E+01	-4.650E-03	-2.358E-03	-8.125E-03	-1.748E-04	 1.122E-01	 1.518E-04	-1.681E-01	-1.346E-01	 5.217E+00	 6.244E-01	 1.812E+03	 3.636E-02	 9.726E-02	-1.285E-03	-3.436E-02	-4.262E-01	 8.177E-02	-3.508E-01	-1.768E+00	 1.163E+00	-9.560E-02	-6.567E+00	-6.502E-02	 5.946E+00	-8.263E-02
  15.250	 1.088E+02	-6.498E-03	 6.323E-03	-7.635E-03	 1.165E-03	 1.049E-01	-1.845E-02	-2.180E-01	 4.216E-02	 5.274E+00	 5.798E-01	 1.812E+03	 3.553E-02	 9.480E-02	-2.186E-02	-4.910E-02	 3.846E-01	 1.247E+00	-3.655E-01	-1.684E+00	 1.102E+00	-1.712E-01	-6.143E+00	 2.137E+00	 5.891E+00	-8.163E-02
  15.300	 1.281E+02	-4.769E-03	 9.916E-03	-6.985E-03	 1.727E-03	 9.568E-02	-2.698E-02	-1.896E-01	 8.747E-02	 5.297E+00	 6.188E-01	 1.812E+03	 3.465E-02	 9.325E-02	-1.983E-02	-3.255E-02	-1.228E-01	-3.467E-01	-2.984E-01	-1.489E+00	 9.958E-01	-1.091E-01	-5.108E+00	 3.983E+00	 5.942E+00	-4.649E-02
  15.350	 1.473E+02	-1.687E-03	 5.442E-03	-5.547E-03	 2.372E-03	 7.548E-02	-3.604E-02	-1.295E-01	 1.408E-03	 5.283E+00	 6.160E-01	 1.812E+03	 3.372E-02	 9.192E-02	-1.648E-02	-8.268E-03	 7.940E-02	 1.107E+00	-1.958E-01	-1.129E+00	 7.634E-01	-2.364E-03	-3.440E+00	 5.445E+00	 5.777E+00	-3.433E-02
  15.400	 1.665E+02	-1.372E-03	-3.028E-04	-3.918E-03	 2.604E-03	 5.260E-02	-3.908E-02	-1.224E-01	-1.020E-01	 5.300E+00	 6.499E-01	 1.812E+03	 3.295E-02	 9.219E-02	-1.417E-02	-2.351E-03	 1.585E-01	-7.436E-01	-1.932E-01	-7.082E-01	 5.419E-01	 9.956E-04	-1.500E+00	 6.332E+00	 5.743E+00	 2.032E-02
  15.450	 1.858E+02	-4.802E-03	-1.203E-03	-1.435E-03	 1.695E-03	 1.764E-02	-2.631E-02	-1.909E-01	-1.196E-01	 5.329E+00	 6.514E-01	 1.812E+03	 3.274E-02	 9.270E-02	 4.554E-03	 3.662E-02	-6.204E-02	-1.166E-02	-2.307E-01	-1.987E-01	 2.065E-01	-1.393E-01	 7.382E-01	 6.488E+00	 5.676E+00	-7.312E-03
  15.500	 2.050E+02	-3.978E-03	 1.853E-04	-3.287E-04	 7.484E-04	 2.481E-03	-1.253E-02	-1.598E-01	-7.382E-02	 5.413E+00	 6.609E-01	 1.812E+03	 3.304E-02	 9.371E-02	 1.543E-02	 2.146E-02	 3.849E-01	 8.967E-01	-2.305E-01	 1.648E-01	 8.325E-02	-8.147E-02	 2.757E+00	 5.987E+00	 5.661E+00	 4.678E-02
  15.550	 2.243E+02	 3.913E-03	-2.722E-03	 8.211E-04	-1.034E-03	-1.413E-02	 1.278E-02	-2.421E-02	-1.207E-01	 5.259E+00	 6.446E-01	 1.812E+03	 3.358E-02	 9.477E-02	 4.661E-03	 1.569E-02	 2.668E-01	 6.550E-01	 9.113E-02	 5.391E-01	-1.462E-01	 2.075E-01	 4.533E+00	 4.647E+00	 5.892E+00	 2.381E-02
  15.600	 2.435E+02	 9.544E-03	-7.898E-03	 1.725E-03	-2.280E-03	-2.704E-02	 3.043E-02	 7.681E-02	-2.153E-01	 5.144E+00	 5.854E-01	 1.812E+03	 3.429E-02	 9.652E-02	 1.676E-02	 3.421E-02	-2.180E-01	-8.690E-01	 3.107E-01	 8.143E-01	-3.133E-01	 3.953E-01	 5.820E+00	 2.924E+00	 6.130E+00	 9.028E-03
  15.650	 2.627E+02	 7.078E-03	-9.360E-03	 2.152E-03	-4.244E-03	-3.257E-02	 5.812E-02	 4.751E-02	-2.415E-01	 5.179E+00	 6.319E-01	 1.812E+03	 3.506E-02	 9.774E-02	 1.653E-02	 2.649E-02	-6.598E-03	 3.179E-01	 1.797E-01	 9.264E-01	-3.466E-01	 2.956E-01	 6.393E+00	 7.912E-01	 6.126E+00	-1.468E-02
  15.700	 2.820E+02	 9.710E-04	-6.074E-03	 2.698E-03	-6.120E-03	-4.045E-02	 8.443E-02	-7.850E-02	-1.797E-01	 5.189E+00	 5.645E-01	 1.812E+03	 3.570E-02	 9.916E-02	 7.293E-03	 1.534E-02	-1.998E-01	-1.276E+00	 6.655E-02	 9.421E-01	-3.913E-01	 4.976E-02	 6.376E+00	-1.391E+00	 6.171E+00	-3.316E-02
  15.750	 3.012E+02	-9.069E-04	-2.588E-03	 1.899E-03	-7.339E-03	-2.950E-02	 1.017E-01	-1.260E-01	-1.087E-01	 5.175E+00	 6.342E-01	 1.812E+03	 3.611E-02	 9.911E-02	 1.180E-02	 5.945E-03	-3.560E-02	 6.828E-01	 5.996E-02	 7.561E-01	-2.508E-01	-2.026E-02	 5.511E+00	-3.454E+00	 5.991E+00	-9.223E-02
  15.800	 3.205E+02	 1.042E-03	-3.367E-03	 9.469E-04	-8.271E-03	-1.540E-02	 1.143E-01	-6.050E-02	-1.408E-01	 5.174E+00	 6.182E-01	 1.812E+03	 3.629E-02	 9.840E-02	 6.630E-04	-3.961E-02	 3.174E-01	 1.996E-01	 5.211E-03	 5.099E-01	-1.324E-01	 7.402E-02	 4.188E+00	-5.128E+00	 5.966E+00	-6.734E-02
  15.850	 3.397E+02	-1.121E-03	-5.989E-03	-6.566E-04	-7.795E-03	 7.519E-03	 1.073E-01	-8.790E-02	-2.049E-01	 5.183E+00	 6.548E-01	 1.812E+03	 3.616E-02	 9.657E-02	-1.795E-02	-5.210E-02	-5.761E-01	-7.481E-01	-1.330E-01	 1.025E-01	 1.254E-01	 1.358E-02	 2.240E+00	-6.105E+00	 6.060E+00	-8.772E-02
  15.900	 3.590E+02	-6.890E-03	-6.100E-03	-2.044E-03	-7.396E-03	 2.717E-02	 1.014E-01	-1.941E-01	-2.156E-01	 5.263E+00	 6.506E-01	 1.812E+03	 3.528E-02	 9.454E-02	-1.337E-02	-2.282E-02	-1.014E-01	-3.863E-02	-3.280E-01	-3.250E-01	 3.567E-01	-1.938E-01	 1.010E-01	-6.523E+00	 5.985E+00	-7.572E-02
  15.950	 1.820E+01	-1.016E-02	-2.956E-03	-3.655E-03	-6.289E-03	 4.972E-02	 8.594E-02	-2.611E-01	-1.528E-01	 5.282E+00	 6.276E-01	 1.812E+03	 3.442E-02	 9.304E-02	-1.781E-02	-3.013E-02	 8.805E-02	 4.788E-01	-4.246E-01	-7.708E-01	 6.096E-01	-3.001E-01	-2.014E+00	-6.105E+00	 5.864E+00	-3.596E-02
  16.000	 3.744E+01	-7.803E-03	-9.228E-04	-5.746E-03	-4.728E-03	 7.918E-02	 6.403E-02	-2.129E-01	-1.118E-01	 5.288E+00	 6.238E-01	 1.812E+03	 3.361E-02	 9.257E-02	-1.538E-02	 8.710E-03	-2.830E-02	-6.152E-02	-4.029E-01	-1.210E+00	 8.891E-01	-1.936E-01	-3.987E+00	-5.134E+00	 5.792E+00	-2.012E-02
  16.050	 5.668E+01	-3.639E-03	-2.276E-03	-6.985E-03	-2.777E-03	 9.676E-02	 3.726E-02	-1.261E-01	-1.128E-01	 5.365E+00	 5.717E-01	 1.812E+03	 3.295E-02	 9.241E-02	-5.118E-03	 2.249E-03	 5.638E-01	 1.541E+00	-3.492E-01	-1.500E+00	 1.014E+00	-3.093E-02	-5.424E+00	-3.515E+00	 5.638E+00	 4.412E-03
  16.100	 7.593E+01	-3.249E-03	-5.946E-03	-8.123E-03	-5.622E-04	 1.123E-01	 4.497E-03	-1.374E-01	-2.469E-01	 5.293E+00	 6.358E-01	 1.812E+03	 3.297E-02	 9.340E-02	 4.553E-04	 3.000E-03	 2.709E-01	-8.000E-01	-3.106E-01	-1.738E+00	 1.166E+00	-3.669E-02	-6.421E+00	-1.567E+00	 5.753E+00	 2.509E-02
  16.150	 9.517E+01	-5.412E-03	-5.731E-04	-7.920E-03	 1.241E-04	 1.092E-01	-4.807E-03	-1.883E-01	-1.296E-01	 5.262E+00	 6.432E-01	 1.812E+03	 3.346E-02	 9.414E-02	 8.363E-03	 2.170E-02	-6.165E-01	-8.945E-01	-3.605E-01	-1.749E+00	 1.132E+00	-1.261E-01	-6.499E+00	 5.500E-01	 5.873E+00	 2.356E-02
  16.200	 1.144E+02	-6.156E-03	 8.082E-03	-7.531E-03	 1.509E-03	 1.034E-01	-2.315E-02	-2.136E-01	 8.185E-02	 5.232E+00	 5.989E-01	 1.812E+03	 3.371E-02	 9.500E-02	 1.377E-02	 3.695E-02	 4.067E-01	 8.723E-01	-3.458E-01	-1.646E+00	 1.086E+00	-1.587E-01	-5.938E+00	 2.700E+00	 5.918E+00	 1.316E-02
  16.250	 1.337E+02	-3.462E-03	 9.293E-03	-6.650E-03	 1.805E-03	 9.099E-02	-2.753E-02	-1.636E-01	 9.673E-02	 5.186E+00	 6.134E-01	 1.812E+03	 3.444E-02	 9.662E-02	 1.318E-02	 2.002E-02	 5.269E-02	-1.688E-01	-2.533E-01	-1.397E+00	 9.364E-01	-6.272E-02	-4.686E+00	 4.433E+00	 6.087E+00	 1.678E-02
  16.300	 1.529E+02	-9.266E-04	 3.312E-03	-5.108E-03	 2.635E-03	 6.932E-02	-4.008E-02	-1.144E-01	-5.371E-02	 5.166E+00	 6.208E-01	 1.812E+03	 3.513E-02	 9.791E-02	 1.264E-02	 3.614E-02	-1.217E-01	 2.073E-01	-1.731E-01	-1.012E+00	 6.976E-01	 2.273E-02	-2.907E+00	 5.798E+00	 6.115E+00	-3.173E-02
  16.350	 1.721E+02	-1.690E-03	-7.212E-04	-3.341E-03	 2.380E-03	 4.451E-02	-3.630E-02	-1.277E-01	-1.237E-01	 5.090E+00	 6.205E-01	 1.812E+03	 3.557E-02	 9.876E-02	 7.634E-03	-7.574E-03	 2.163E-01	-4.020E-02	-2.111E-01	-5.549E-01	 4.790E-01	 1.520E-02	-8.382E-01	 6.438E+00	 6.069E+00	-3.947E-02
  16.400	 1.914E+02	-6.044E-03	 2.541E-04	-8.094E-04	 1.357E-03	 7.917E-03	-2.124E-02	-2.510E-01	-7.835E-02	 5.119E+00	 5.811E-01	 1.812E+03	 3.608E-02	 9.898E-02	 3.981E-03	-8.188E-03	-4.574E-01	-1.961E+00	-1.221E-01	-6.280E-02	 1.278E-01	-2.000E-01	 1.397E+00	 6.450E+00	 6.126E+00	-8.427E-02
  16.450	 2.106E+02	-2.280E-03	 4.661E-04	-1.087E-04	 2.489E-04	-1.031E-03	-5.304E-03	-1.432E-01	-6.080E-02	 5.240E+00	 5.967E-01	 1.812E+03	 3.627E-02	 9.765E-02	 3.214E-03	-2.409E-02	-5.893E-01	-4.502E-01	-9.762E-02	 2.658E-01	 4.160E-02	-2.602E-02	 3.326E+00	 5.656E+00	 6.005E+00	-7.376E-02
  16.500	 2.299E+02	 6.973E-03	-4.089E-03	 1.219E-03	-1.524E-03	-1.911E-02	 1.961E-02	 5.883E-02	-1.490E-01	 5.276E+00	 6.222E-01	 1.812E+03	 3.568E-02	 9.559E-02	-1.396E-02	-3.388E-02	 4.255E-01	 1.413E+00	 1.054E-01	 6.494E-01	-2.267E-01	 3.329E-01	 5.000E+00	 4.163E+00	 5.932E+00	-7.950E-02
  16.550	 2.491E+02	 1.019E-02	-9.205E-03	 1.724E-03	-2.714E-03	-2.676E-02	 3.640E-02	 9.931E-02	-2.459E-01	 5.206E+00	 6.063E-01	 1.812E+03	 3.507E-02	 9.438E-02	-1.716E-02	-3.426E-02	-1.213E-01	-2.998E-01	 2.894E-01	 8.480E-01	-3.075E-01	 4.197E-01	 6.044E+00	 2.320E+00	 5.999E+00	-5.126E-02
  16.600	 2.683E+02	 5.040E-03	-9.278E-03	 2.424E-03	-4.887E-03	-3.688E-02	 6.723E-02	-1.081E-02	-2.365E-01	 5.248E+00	 6.426E-01	 1.812E+03	 3.429E-02	 9.317E-02	-1.403E-02	-5.882E-03	-4.054E-02	 7.577E-01	 1.929E-01	 9.461E-01	-3.827E-01	 2.006E-01	 6.450E+00	 1.321E-01	 5.858E+00	-4.920E-02
  16.650	 2.876E+02	-5.861E-04	-5.446E-03	 2.581E-03	-6.423E-03	-3.887E-02	 8.881E-02	-1.115E-01	-1.629E-01	 5.310E+00	 6.008E-01	 1.812E+03	 3.351E-02	 9.308E-02	-1.524E-02	-1.228E-02	 2.261E-01	-4.369E-01	 2.990E-02	 9.034E-01	-3.584E-01	-8.956E-03	 6.193E+00	-1.991E+00	 5.769E+00	 4.423E-04
  16.700	 3.068E+02	-1.020E-03	-2.961E-03	 1.627E-03	-7.651E-03	-2.529E-02	 1.059E-01	-1.136E-01	-1.214E-01	 5.330E+00	 6.079E-01	 1.812E+03	 3.322E-02	 9.327E-02	-1.913E-04	 2.410E-02	-2.009E-01	-4.736E-01	-7.621E-03	 6.933E-01	-2.065E-01	-1.138E-02	 5.184E+00	-3.993E+00	 5.726E+00	-2.538E-02
  16.750	 3.261E+02	 4.064E-04	-4.221E-03	 6.662E-04	-8.197E-03	-1.126E-02	 1.133E-01	-6.536E-02	-1.568E-01	 5.294E+00	 6.260E-01	 1.812E+03	 3.328E-02	 9.358E-02	 1.056E-02	 1.155E-02	 2.877E-01	 9.623E-01	-5.585E-02	 4.170E-01	-8.815E-02	 6.048E-02	 3.705E+00	-5.444E+00	 5.656E+00	 3.221E-02
  16.800	 3.453E+02	-3.032E-03	-6.215E-03	-1.131E-03	-7.686E-03	 1.411E-02	 1.057E-01	-1.278E-01	-2.109E-01	 5.278E+00	 6.238E-01	 1.812E+03	 3.350E-02	 9.412E-02	-7.787E-04	 6.415E-03	 3.265E-01	 7.422E-01	-1.883E-01	-2.443E-02	 2.098E-01	-5.592E-02	 1.637E+00	-6.284E+00	 5.856E+00	 1.806E-02
  16.850	 4.556E+00	-8.383E-03	-5.086E-03	-2.334E-03	-7.187E-03	 3.115E-02	 9.849E-02	-2.266E-01	-1.966E-01	 5.236E+00	 6.093E-01	 1.812E+03	 3.394E-02	 9.545E-02	 1.186E-02	 2.924E-02	-1.145E-01	-5.716E-01	-3.552E-01	-4.369E-01	 4.029E-01	-2.487E-01	-4.916E-01	-6.486E+00	 6.061E+00	 1.462E-02
  16.900	 2.380E+01	-9.486E-03	-1.901E-03	-4.357E-03	-5.847E-03	 5.972E-02	 7.969E-02	-2.429E-01	-1.341E-01	 5.222E+00	 6.058E-01	 1.812E+03	 3.453E-02	 9.655E-02	 1.293E-02	 2.382E-02	-4.151E-03	 4.514E-01	-4.291E-01	-9.113E-01	 7.097E-01	-2.656E-01	-2.621E+00	-5.881E+00	 6.052E+00	-6.888E-03
  16.950	 4.304E+01	-5.857E-03	-9.480E-04	-6.184E-03	-4.253E-03	 8.536E-02	 5.734E-02	-1.740E-01	-1.135E-01	 5.114E+00	 6.190E-01	 1.812E+03	 3.511E-02	 9.815E-02	 8.527E-03	 2.108E-02	-1.562E-01	-1.396E+00	-3.510E-01	-1.307E+00	 9.288E-01	-1.187E-01	-4.475E+00	-4.748E+00	 6.113E+00	-1.439E-02
  17.000	 6.228E+01	-2.462E-03	-3.421E-03	-7.409E-03	-1.931E-03	 1.026E-01	 2.547E-02	-1.065E-01	-1.308E-01	 5.181E+00	 5.882E-01	 1.812E+03	 3.562E-02	 9.844E-02	 1.462E-02	 1.779E-02	-7.600E-03	 6.709E-01	-3.044E-01	-1.584E+00	 1.063E+00	 5.384E-03	-5.807E+00	-2.942E+00	 5.954E+00	-7.775E-02
  17.050	 8.152E+01	-3.482E-03	-4.587E-03	-8.270E-03	-4.051E-04	 1.143E-01	 3.248E-03	-1.438E-01	-1.834E-01	 5.206E+00	 6.129E-01	 1.812E+03	 3.602E-02	 9.821E-02	 7.059E-03	-2.667E-02	 3.269E-01	 4.979E-01	-3.153E-01	-1.768E+00	 1.186E+00	-4.937E-02	-6.544E+00	-9.563E-01	 5.945E+00	-5.323E-02
  17.100	 1.008E+02	-6.076E-03	 2.177E-03	-7.775E-03	 5.531E-04	 1.070E-01	-1.093E-02	-2.071E-01	-7.966E-02	 5.222E+00	 6.223E-01	 1.812E+03	 3.612E-02	 9.700E-02	-1.335E-02	-4.232E-02	-4.665E-01	-6.636E-01	-3.575E-01	-1.726E+00	 1.115E+00	-1.555E-01	-6.384E+00	 1.234E+00	 6.085E+00	-8.038E-02
  17.150	 1.200E+02	-5.877E-03	 9.269E-03	-7.364E-03	 1.680E-03	 1.010E-01	-2.620E-02	-2.113E-01	 7.963E-02	 5.234E+00	 6.167E-01	 1.812E+03	 3.556E-02	 9.555E-02	-8.216E-03	-1.481E-02	-2.080E-01	-3.989E-01	-3.264E-01	-1.595E+00	 1.059E+00	-1.500E-01	-5.645E+00	 3.274E+00	 6.058E+00	-7.536E-02
  17.200	 1.393E+02	-2.665E-03	 8.398E-03	-6.215E-03	 1.960E-03	 8.489E-02	-2.953E-02	-1.474E-01	 8.618E-02	 5.228E+00	 5.956E-01	 1.812E+03	 3.489E-02	 9.420E-02	-1.458E-02	-2.716E-02	 5.278E-02	 5.774E-01	-2.323E-01	-1.290E+00	 8.665E-01	-3.493E-02	-4.188E+00	 4.879E+00	 5.925E+00	-4.648E-02
  17.250	 1.585E+02	-8.934E-04	 1.807E-03	-4.639E-03	 2.699E-03	 6.278E-02	-4.065E-02	-1.114E-01	-6.980E-02	 5.266E+00	 6.335E-01	 1.812E+03	 3.416E-02	 9.378E-02	-1.593E-02	 2.497E-03	-1.005E-01	-4.189E-01	-1.918E-01	-8.905E-01	 6.348E-01	 2.282E-02	-2.346E+00	 6.071E+00	 5.865E+00	-3.032E-02
  17.300	 1.777E+02	-2.497E-03	-1.392E-03	-2.623E-03	 2.123E-03	 3.519E-02	-3.283E-02	-1.137E-01	-1.426E-01	 5.469E+00	 6.620E-01	 1.812E+03	 3.345E-02	 9.323E-02	-5.800E-03	-2.062E-03	 5.186E-01	 1.630E+00	-2.738E-01	-4.261E-01	 3.698E-01	-5.032E-02	-2.060E-01	 6.464E+00	 5.662E+00	-1.334E-02
  17.350	 1.970E+02	-6.098E-03	 8.306E-05	-5.005E-04	 1.163E-03	 3.891E-03	-1.843E-02	-2.397E-01	-7.911E-02	 5.298E+00	 6.313E-01	 1.812E+03	 3.329E-02	 9.369E-02	-3.651E-03	-9.209E-03	 3.533E-01	-4.350E-01	-1.713E-01	 3.801E-02	 1.000E-01	-1.875E-01	 1.966E+00	 6.314E+00	 5.735E+00	 1.524E-02
  17.400	 2.162E+02	-3.023E-04	-1.011E-03	 2.067E-04	-2.365E-04	-6.077E-03	 1.706E-03	-1.285E-01	-8.218E-02	 5.216E+00	 6.267E-01	 1.812E+03	 3.351E-02	 9.382E-02	 3.389E-04	 3.231E-03	-5.867E-01	-8.995E-01	 4.414E-02	 3.709E-01	-2.180E-02	 3.996E-02	 3.824E+00	 5.276E+00	 5.868E+00	 1.581E-02
  17.450	 2.355E+02	 8.597E-03	-6.008E-03	 1.521E-03	-1.818E-03	-2.349E-02	 2.392E-02	 8.497E-02	-1.796E-01	 5.274E+00	 6.248E-01	 1.812E+03	 3.352E-02	 9.421E-02	 9.987E-03	 3.225E-02	 2.856E-01	 5.722E-01	 1.773E-01	 7.339E-01	-2.826E-01	 3.854E-01	 5.375E+00	 3.695E+00	 5.902E+00	 1.262E-02
  17.500	 2.547E+02	 9.406E-03	-9.678E-03	 1.825E-03	-3.256E-03	-2.772E-02	 4.399E-02	 1.025E-01	-2.563E-01	 5.258E+00	 6.399E-01	 1.812E+03	 3.400E-02	 9.543E-02	 9.772E-03	 1.695E-02	 1.806E-01	 2.736E-01	 2.021E-01	 8.797E-01	-3.099E-01	 3.952E-01	 6.209E+00	 1.723E+00	 6.000E+00	 2.232E-02
  17.550	 2.739E+02	 2.893E-03	-7.939E-03	 2.657E-03	-5.470E-03	-4.027E-02	 7.532E-02	-5.697E-02	-2.146E-01	 5.192E+00	 6.038E-01	 1.812E+03	 3.462E-02	 9.683E-02	 1.148E-02	 3.703E-02	-1.388E-01	-3.959E-02	 1.585E-01	 9.601E-01	-4.039E-01	 1.154E-01	 6.474E+00	-4.958E-01	 6.048E+00	-1.909E-02
  17.600	 2.932E+02	-1.188E-03	-3.725E-03	 2.358E-03	-6.807E-03	-3.606E-02	 9.427E-02	-1.360E-01	-1.273E-01	 5.203E+00	 6.146E-01	 1.812E+03	 3.507E-02	 9.780E-02	 1.075E-02	 3.456E-03	 2.739E-01	 2.635E-01	 6.651E-02	 8.511E-01	-3.193E-01	-3.460E-02	 5.942E+00	-2.599E+00	 6.010E+00	-2.948E-02
  17.650	 3.124E+02	 1.844E-04	-2.705E-03	 1.322E-03	-8.013E-03	-2.079E-02	 1.108E-01	-8.184E-02	-1.246E-01	 5.191E+00	 5.758E-01	 1.812E+03	 3.572E-02	 9.846E-02	 7.063E-03	-2.629E-03	-2.971E-01	-1.715E+00	 3.892E-03	 6.240E-01	-1.734E-01	 3.861E-02	 4.813E+00	-4.519E+00	 6.090E+00	-6.784E-02
  17.700	 3.317E+02	 4.897E-04	-4.816E-03	 1.455E-04	-8.061E-03	-3.790E-03	 1.112E-01	-5.794E-02	-1.739E-01	 5.161E+00	 6.425E-01	 1.812E+03	 3.615E-02	 9.769E-02	 6.665E-03	-1.381E-02	-6.564E-01	-5.651E-01	-7.301E-02	 2.943E-01	-9.730E-03	 6.897E-02	 3.127E+00	-5.760E+00	 6.026E+00	-6.773E-02
  17.750	 3.509E+02	-4.239E-03	-6.316E-03	-1.602E-03	-7.606E-03	 2.078E-02	 1.045E-01	-1.492E-01	-2.155E-01	 5.221E+00	 6.528E-01	 1.812E+03	 3.579E-02	 9.622E-02	-8.494E-03	-2.291E-02	 3.340E-01	 1.082E+00	-2.291E-01	-1.564E-01	 2.837E-01	-9.895E-02	 9.895E-01	-6.440E+00	 5.980E+00	-7.844E-02
  17.800	 1.015E+01	-9.356E-03	-4.290E-03	-2.806E-03	-6.869E-03	 3.767E-02	 9.406E-02	-2.498E-01	-1.796E-01	 5.214E+00	 6.363E-01	 1.812E+03	 3.539E-02	 9.536E-02	-1.254E-02	-2.651E-02	-1.157E-01	-3.163E-01	-3.705E-01	-5.718E-01	 4.754E-01	-2.827E-01	-1.130E+00	-6.371E+00	 6.049E+00	-5.400E-02
  17.850	 2.940E+01	-9.118E-03	-1.432E-03	-5.010E-03	-5.377E-03	 6.892E-02	 7.308E-02	-2.350E-01	-1.246E-01	 5.299E+00	 6.300E-01	 1.812E+03	 3.475E-02	 9.429E-02	-1.327E-02	-6.331E-03	-5.028E-02	 8.158E-01	-4.369E-01	-1.048E+00	 8.011E-01	-2.465E-01	-3.221E+00	-5.597E+00	 5.915E+00	-5.934E-02
  17.900	 4.864E+01	-5.083E-03	-1.530E-03	-6.495E-03	-3.706E-03	 8.984E-02	 4.959E-02	-1.556E-01	-1.269E-01	 5.234E+00	 6.056E-01	 1.812E+03	 3.399E-02	 9.406E-02	-1.563E-02	-2.002E-02	 1.864E-01	-4.995E-01	-3.592E-01	-1.389E+00	 9.607E-01	-8.622E-02	-4.907E+00	-4.272E+00	 5.814E+00	-1.389E-02
  17.950	 6.788E+01	-2.829E-03	-5.163E-03	-7.730E-03	-1.187E-03	 1.070E-01	 1.373E-02	-1.193E-01	-2.144E-01	 5.268E+00	 6.324E-01	 1.812E+03	 3.362E-02	 9.392E-02	-3.852E-03	 1.230E-02	-2.693E-01	-9.545E-01	-3.110E-01	-1.658E+00	 1.109E+00	-1.421E-02	-6.108E+00	-2.386E+00	 5.794E+00	-3.380E-02
  18.000	 8.712E+01	-4.396E-03	-3.139E-03	-8.170E-03	-2.734E-04	 1.129E-01	 1.687E-03	-1.605E-01	-1.441E-01	 5.308E+00	 6.092E-01	 1.812E+03	 3.351E-02	 9.364E-02	 6.908E-03	 6.055E-03	 1.546E-01	 9.249E-01	-3.566E-01	-1.768E+00	 1.171E+00	-8.353E-02	-6.565E+00	-3.664E-01	 5.677E+00	 1.983E-02
  18.050	 1.064E+02	-6.398E-03	 4.950E-03	-7.668E-03	 9.887E-04	 1.054E-01	-1.621E-02	-2.152E-01	 6.444E-03	 5.295E+00	 5.891E-01	 1.812E+03	 3.345E-02	 9.363E-02	-5.333E-03	-3.887E-03	 4.743E-01	 1.194E+00	-3.663E-01	-1.697E+00	 1.104E+00	-1.674E-01	-6.227E+00	 1.842E+00	 5.808E+00	 1.314E-02
  18.100	 1.256E+02	-4.983E-03	 9.471E-03	-7.127E-03	 1.738E-03	 9.766E-02	-2.723E-02	-1.943E-01	 7.501E-02	 5.249E+00	 6.395E-01	 1.812E+03	 3.372E-02	 9.470E-02	 7.386E-03	 2.070E-02	-1.717E-01	-8.467E-01	-2.999E-01	-1.527E+00	 1.018E+00	-1.172E-01	-5.301E+00	 3.762E+00	 6.026E+00	 1.831E-02
  18.150	 1.448E+02	-1.733E-03	 6.201E-03	-5.769E-03	 2.271E-03	 7.859E-02	-3.442E-02	-1.306E-01	 2.361E-02	 5.192E+00	 6.155E-01	 1.812E+03	 3.413E-02	 9.552E-02	 1.121E-02	 2.711E-02	 6.331E-02	 7.220E-01	-1.924E-01	-1.180E+00	 7.948E-01	-3.564E-03	-3.685E+00	 5.282E+00	 5.986E+00	-1.703E-03
  18.200	 1.641E+02	-1.010E-03	 4.738E-04	-4.154E-03	 2.652E-03	 5.593E-02	-3.973E-02	-1.151E-01	-8.601E-02	 5.185E+00	 6.338E-01	 1.812E+03	 3.463E-02	 9.717E-02	 7.378E-03	 1.835E-02	-5.432E-02	-1.222E+00	-1.864E-01	-7.644E-01	 5.712E-01	 1.578E-02	-1.764E+00	 6.277E+00	 6.045E+00	-1.616E-03
  18.250	 1.833E+02	-3.990E-03	-8.535E-04	-1.761E-03	 1.801E-03	 2.285E-02	-2.798E-02	-1.506E-01	-1.192E-01	 5.292E+00	 6.247E-01	 1.812E+03	 3.521E-02	 9.779E-02	 1.692E-02	 2.818E-02	-1.074E-01	 3.270E-01	-2.933E-01	-2.581E-01	 2.524E-01	-9.615E-02	 4.745E-01	 6.502E+00	 5.931E+00	-6.826E-02
  18.300	 2.026E+02	-4.811E-03	 7.473E-04	-3.550E-04	 8.559E-04	 2.662E-03	-1.412E-02	-1.832E-01	-6.650E-02	 5.307E+00	 6.128E-01	 1.812E+03	 3.574E-02	 9.788E-02	 1.150E-02	-1.633E-02	 3.348E-01	 6.237E-01	-2.298E-01	 1.315E-01	 8.882E-02	-1.168E-01	 2.546E+00	 6.101E+00	 5.909E+00	-4.193E-02
  18.350	 2.218E+02	 2.731E-03	-1.780E-03	 6.297E-04	-8.533E-04	-1.186E-02	 1.027E-02	-6.378E-02	-1.014E-01	 5.142E+00	 5.972E-01	 1.812E+03	 3.599E-02	 9.703E-02	-9.859E-03	-3.490E-02	-3.029E-01	-2.938E-01	 1.179E-01	 4.926E-01	-1.081E-01	 1.583E-01	 4.350E+00	 4.830E+00	 6.074E+00	-7.270E-02
  18.400	 2.411E+02	 9.788E-03	-7.206E-03	 1.676E-03	-2.166E-03	-2.623E-02	 2.890E-02	 8.626E-02	-1.997E-01	 5.137E+00	 5.727E-01	 1.812E+03	 3.566E-02	 9.609E-02	-4.819E-03	-1.005E-02	-2.767E-01	-6.654E-01	 2.978E-01	 7.976E-01	-3.102E-01	 4.116E-01	 5.714E+00	 3.149E+00	 6.107E+00	-7.249E-02
  18.450	 2.603E+02	 8.246E-03	-9.732E-03	 2.001E-03	-3.947E-03	-3.017E-02	 5.387E-02	 8.076E-02	-2.508E-01	 5.248E+00	 6.446E-01	 1.812E+03	 3.518E-02	 9.501E-02	-1.061E-02	-1.964E-02	-3.327E-03	 5.193E-01	 1.704E-01	 9.103E-01	-3.292E-01	 3.462E-01	 6.345E+00	 1.061E+00	 5.972E+00	-5.460E-02
  18.500	 2.795E+02	 1.326E-03	-7.156E-03	 2.722E-03	-5.914E-03	-4.091E-02	 8.151E-02	-7.662E-02	-2.013E-01	 5.273E+00	 5.913E-01	 1.812E+03	 3.457E-02	 9.472E-02	-1.487E-02	-1.266E-03	-1.263E-01	-6.284E-01	 8.053E-02	 9.510E-01	-3.994E-01	 6.148E-02	 6.418E+00	-1.122E+00	 5.916E+00	-3.767E-02
  18.550	 2.988E+02	-1.540E-03	-3.378E-03	 2.067E-03	-7.136E-03	-3.198E-02	 9.885E-02	-1.430E-01	-1.220E-01	 5.290E+00	 6.578E-01	 1.812E+03	 3.391E-02	 9.400E-02	-5.557E-03	-3.395E-03	 4.088E-01	 1.537E+00	 4.917E-02	 7.861E-01	-2.711E-01	-4.495E-02	 5.645E+00	-3.173E+00	 5.689E+00	-3.306E-02
  18.600	 3.180E+02	 3.197E-04	-3.456E-03	 1.103E-03	-8.191E-03	-1.761E-02	 1.132E-01	-7.497E-02	-1.419E-01	 5.303E+00	 5.985E-01	 1.812E+03	 3.365E-02	 9.403E-02	-5.687E-03	-1.993E-02	 4.126E-01	-1.636E-01	-1.881E-02	 5.503E-01	-1.474E-01	 4.605E-02	 4.398E+00	-4.936E+00	 5.752E+00	 6.316E-03
  18.650	 3.373E+02	-9.005E-04	-5.685E-03	-3.692E-04	-7.853E-03	 3.550E-03	 1.082E-01	-8.083E-02	-1.963E-01	 5.263E+00	 6.259E-01	 1.812E+03	 3.372E-02	 9.382E-02	-4.639E-03	-3.794E-03	-6.031E-01	-9.626E-01	-1.385E-01	 1.678E-01	 8.122E-02	 2.258E-02	 2.536E+00	-5.996E+00	 5.882E+00	 3.943E-03
  18.700	 3.565E+02	-6.312E-03	-6.074E-03	-1.871E-03	-7.482E-03	 2.470E-02	 1.027E-01	-1.840E-01	-2.133E-01	 5.293E+00	 6.186E-01	 1.812E+03	 3.351E-02	 9.383E-02	 5.783E-03	 2.396E-02	 2.677E-01	 6.083E-01	-3.104E-01	-2.670E-01	 3.310E-01	-1.721E-01	 3.961E-01	-6.512E+00	 5.882E+00	 7.291E-03
  18.750	 1.575E+01	-1.007E-02	-3.207E-03	-3.354E-03	-6.484E-03	 4.538E-02	 8.868E-02	-2.631E-01	-1.580E-01	 5.228E+00	 6.004E-01	 1.812E+03	 3.381E-02	 9.477E-02	 6.535E-03	 1.219E-02	 1.432E-01	 1.677E-01	-4.007E-01	-7.047E-01	 5.632E-01	-3.015E-01	-1.729E+00	-6.203E+00	 5.964E+00	 2.288E-02
  18.800	 3.499E+01	-7.947E-03	-9.276E-04	-5.555E-03	-4.939E-03	 7.652E-02	 6.697E-02	-2.149E-01	-1.132E-01	 5.222E+00	 6.107E-01	 1.812E+03	 3.425E-02	 9.601E-02	 9.411E-03	 3.886E-02	-5.095E-02	 7.072E-02	-4.000E-01	-1.163E+00	 8.659E-01	-2.000E-01	-3.763E+00	-5.295E+00	 5.994E+00	-9.652E-03
  18.850	 5.424E+01	-3.456E-03	-1.868E-03	-6.873E-03	-3.102E-03	 9.518E-02	 4.134E-02	-1.223E-01	-1.239E-01	 5.239E+00	 5.825E-01	 1.812E+03	 3.466E-02	 9.700E-02	 1.070E-02	 4.952E-03	 3.258E-01	 5.568E-01	-3.315E-01	-1.469E+00	 9.977E-01	-2.427E-02	-5.287E+00	-3.744E+00	 5.954E+00	-2.145E-02
  18.900	 7.348E+01	-2.629E-03	-5.980E-03	-8.069E-03	-6.839E-04	 1.115E-01	 6.162E-03	-1.242E-01	-2.493E-01	 5.167E+00	 6.495E-01	 1.812E+03	 3.535E-02	 9.792E-02	 8.610E-03	 9.511E-05	-1.894E-01	-1.643E+00	-2.838E-01	-1.723E+00	 1.154E+00	-1.357E-02	-6.357E+00	-1.806E+00	 6.050E+00	-4.974E-02
  18.950	 9.272E+01	-4.999E-03	-1.447E-03	-8.017E-03	-3.902E-06	 1.106E-01	-2.806E-03	-1.779E-01	-1.387E-01	 5.195E+00	 6.398E-01	 1.812E+03	 3.591E-02	 9.752E-02	 8.015E-03	-8.050E-03	-7.374E-01	-8.949E-01	-3.506E-01	-1.760E+00	 1.145E+00	-1.108E-01	-6.539E+00	 2.898E-01	 6.046E+00	-5.840E-02
  19.000	 1.120E+02	-6.449E-03	 7.636E-03	-7.575E-03	 1.356E-03	 1.041E-01	-2.100E-02	-2.188E-01	 7.285E-02	 5.221E+00	 5.811E-01	 1.812E+03	 3.572E-02	 9.644E-02	-2.415E-03	-8.713E-03	 3.339E-01	 1.061E+00	-3.546E-01	-1.664E+00	 1.094E+00	-1.702E-01	-6.030E+00	 2.470E+00	 5.998E+00	-7.182E-02
  19.050	 1.312E+02	-4.099E-03	 9.921E-03	-6.812E-03	 1.759E-03	 9.325E-02	-2.704E-02	-1.762E-01	 1.025E-01	 5.227E+00	 6.033E-01	 1.812E+03	 3.551E-02	 9.590E-02	-9.770E-03	-2.483E-02	-6.000E-02	-1.397E-01	-2.738E-01	-1.439E+00	 9.657E-01	-8.550E-02	-4.870E+00	 4.250E+00	 6.067E+00	-5.130E-02
  19.100	 1.504E+02	-1.148E-03	 4.260E-03	-5.294E-03	 2.519E-03	 7.193E-02	-3.836E-02	-1.187E-01	-3.174E-02	 5.224E+00	 6.122E-01	 1.812E+03	 3.505E-02	 9.515E-02	-1.038E-02	-1.006E-03	-1.522E-01	 4.479E-01	-1.797E-01	-1.062E+00	 7.240E-01	 1.588E-02	-3.136E+00	 5.656E+00	 5.973E+00	-6.442E-02
  19.150	 1.697E+02	-1.516E-03	-6.548E-04	-3.607E-03	 2.493E-03	 4.821E-02	-3.774E-02	-1.261E-01	-1.172E-01	 5.206E+00	 6.285E-01	 1.812E+03	 3.436E-02	 9.481E-02	-1.389E-02	-2.140E-02	 2.712E-01	-1.107E-01	-2.662E-01	-6.192E-01	 5.029E-01	 1.072E-03	-1.122E+00	 6.402E+00	 5.840E+00	-2.487E-02
  19.200	 1.889E+02	-5.709E-03	-4.906E-04	-1.035E-03	 1.503E-03	 1.145E-02	-2.341E-02	-2.303E-01	-9.754E-02	 5.232E+00	 6.181E-01	 1.812E+03	 3.404E-02	 9.465E-02	-6.051E-03	 4.203E-03	-3.422E-01	-1.276E+00	-1.716E-01	-1.174E-01	 1.556E-01	-1.805E-01	 1.112E+00	 6.475E+00	 5.844E+00	-4.522E-02
  19.250	 2.082E+02	-3.208E-03	 2.924E-04	-2.224E-04	 4.990E-04	 9.211E-04	-8.855E-03	-1.474E-01	-6.564E-02	 5.375E+00	 6.451E-01	 1.812E+03	 3.385E-02	 9.402E-02	 4.256E-03	-1.600E-03	-3.546E-02	 5.601E-01	-1.889E-01	 2.190E-01	 6.656E-02	-5.183E-02	 3.070E+00	 5.813E+00	 5.714E+00	 7.387E-03
  19.300	 2.274E+02	 5.637E-03	-3.713E-03	 1.053E-03	-1.300E-03	-1.701E-02	 1.648E-02	 2.346E-02	-1.415E-01	 5.312E+00	 6.509E-01	 1.812E+03	 3.357E-02	 9.353E-02	-7.949E-03	-7.830E-03	 5.237E-01	 1.333E+00	 9.136E-02	 6.017E-01	-1.930E-01	 2.795E-01	 4.792E+00	 4.383E+00	 5.804E+00	 5.544E-03
  19.350	 2.467E+02	 9.885E-03	-8.898E-03	 1.733E-03	-2.482E-03	-2.711E-02	 3.318E-02	 8.505E-02	-2.382E-01	 5.198E+00	 6.050E-01	 1.812E+03	 3.365E-02	 9.423E-02	 3.179E-03	 1.291E-02	-7.081E-02	-5.355E-01	 3.092E-01	 8.333E-01	-3.115E-01	 4.072E-01	 5.946E+00	 2.598E+00	 5.993E+00	 1.777E-02
  19.400	 2.659E+02	 5.834E-03	-9.372E-03	 2.313E-03	-4.603E-03	-3.506E-02	 6.322E-02	 1.431E-02	-2.390E-01	 5.242E+00	 6.453E-01	 1.812E+03	 3.390E-02	 9.486E-02	 7.713E-03	 2.321E-02	 5.842E-02	 7.632E-01	 1.852E-01	 9.357E-01	-3.681E-01	 2.371E-01	 6.425E+00	 4.276E-01	 5.945E+00	-1.219E-03
  19.450	 2.851E+02	-3.818E-05	-5.568E-03	 2.657E-03	-6.296E-03	-3.984E-02	 8.698E-02	-9.726E-02	-1.673E-01	 5.260E+00	 5.716E-01	 1.812E+03	 3.428E-02	 9.641E-02	 6.107E-03	 1.703E-02	-1.835E-02	-1.243E+00	 4.339E-02	 9.229E-01	-3.752E-01	 1.303E-02	 6.288E+00	-1.723E+00	 5.998E+00	 7.242E-03
  19.500	 3.044E+02	-9.711E-04	-2.551E-03	 1.745E-03	-7.531E-03	-2.713E-02	 1.043E-01	-1.192E-01	-1.104E-01	 5.239E+00	 6.195E-01	 1.812E+03	 3.485E-02	 9.712E-02	 1.705E-02	 3.258E-02	-1.258E-01	 1.312E-01	 2.783E-02	 7.214E-01	-2.254E-01	-1.467E-02	 5.331E+00	-3.763E+00	 5.906E+00	-5.849E-02
  19.550	 3.236E+02	 8.391E-04	-3.717E-03	 7.916E-04	-8.260E-03	-1.316E-02	 1.142E-01	-6.233E-02	-1.477E-01	 5.200E+00	 6.291E-01	 1.812E+03	 3.544E-02	 9.739E-02	 1.437E-02	-8.357E-03	 3.105E-01	 8.399E-01	-1.301E-02	 4.583E-01	-1.105E-01	 7.060E-02	 3.918E+00	-5.315E+00	 5.880E+00	-3.128E-02
  19.600	 3.429E+02	-1.928E-03	-6.082E-03	-9.595E-04	-7.737E-03	 1.174E-02	 1.064E-01	-1.051E-01	-2.080E-01	 5.186E+00	 6.439E-01	 1.812E+03	 3.580E-02	 9.700E-02	-6.634E-03	-2.547E-02	-1.881E-01	-2.552E-01	-1.528E-01	 2.843E-02	 1.767E-01	-1.584E-02	 1.891E+00	-6.219E+00	 6.070E+00	-6.348E-02
  19.650	 2.109E+00	-7.519E-03	-5.474E-03	-2.220E-03	-7.292E-03	 2.963E-02	 9.999E-02	-2.067E-01	-2.038E-01	 5.207E+00	 6.421E-01	 1.812E+03	 3.568E-02	 9.647E-02	-1.381E-03	-3.497E-03	-2.902E-01	-6.508E-01	-3.408E-01	-3.881E-01	 3.827E-01	-2.164E-01	-2.424E-01	-6.516E+00	 6.128E+00	-6.703E-02
  19.700	 2.135E+01	-9.775E-03	-2.351E-03	-4.071E-03	-6.036E-03	 5.563E-02	 8.237E-02	-2.513E-01	-1.419E-01	 5.224E+00	 6.295E-01	 1.812E+03	 3.536E-02	 9.568E-02	-8.029E-03	-1.616E-02	-5.334E-02	 4.463E-01	-4.263E-01	-8.514E-01	 6.694E-01	-2.810E-01	-2.367E+00	-5.983E+00	 6.010E+00	-5.676E-02
  19.750	 4.059E+01	-6.826E-03	-9.801E-04	-5.998E-03	-4.462E-03	 8.270E-02	 6.027E-02	-1.944E-01	-1.139E-01	 5.184E+00	 6.301E-01	 1.812E+03	 3.486E-02	 9.555E-02	-1.302E-02	-8.345E-04	-1.505E-01	-9.014E-01	-3.738E-01	-1.266E+00	 9.128E-01	-1.566E-01	-4.272E+00	-4.923E+00	 5.967E+00	-3.895E-02
  19.800	 5.983E+01	-3.072E-03	-2.919E-03	-7.218E-03	-2.303E-03	 1.000E-01	 3.077E-02	-1.161E-01	-1.187E-01	 5.283E+00	 5.753E-01	 1.812E+03	 3.427E-02	 9.476E-02	-4.651E-03	-2.531E-03	 3.182E-01	 1.516E+00	-3.323E-01	-1.547E+00	 1.043E+00	-1.042E-02	-5.644E+00	-3.191E+00	 5.721E+00	-4.857E-02
  19.850	 7.908E+01	-3.494E-03	-5.582E-03	-8.217E-03	-4.466E-04	 1.136E-01	 3.483E-03	-1.431E-01	-2.161E-01	 5.286E+00	 6.198E-01	 1.812E+03	 3.397E-02	 9.454E-02	-5.691E-03	-2.386E-02	 4.716E-01	 1.971E-01	-3.204E-01	-1.757E+00	 1.180E+00	-4.761E-02	-6.499E+00	-1.229E+00	 5.747E+00	-9.591E-04
  19.900	 9.832E+01	-5.899E-03	 7.756E-04	-7.823E-03	 3.563E-04	 1.077E-01	-8.228E-03	-2.015E-01	-1.095E-01	 5.269E+00	 6.369E-01	 1.812E+03	 3.391E-02	 9.396E-02	-9.844E-03	-1.845E-02	-5.118E-01	-7.951E-01	-3.665E-01	-1.735E+00	 1.121E+00	-1.447E-01	-6.437E+00	 9.259E-01	 5.893E+00	-3.861E-03
  19.950	 1.176E+02	-6.077E-03	 8.965E-03	-7.440E-03	 1.603E-03	 1.021E-01	-2.487E-02	-2.136E-01	 8.326E-02	 5.267E+00	 6.216E-01	 1.812E+03	 3.359E-02	 9.373E-02	 3.247E-03	 2.031E-02	 1.113E-01	 1.091E-01	-3.403E-01	-1.620E+00	 1.072E+00	-1.561E-01	-5.784E+00	 3.018E+00	 5.909E+00	 2.710E-03
  20.000	 1.368E+02	-3.048E-03	 8.928E-03	-6.411E-03	 1.882E-03	 8.766E-02	-2.844E-02	-1.548E-01	 9.615E-02	 5.233E+00	 6.102E-01	 1.812E+03	 3.369E-02	 9.421E-02	 3.789E-03	 7.759E-03	 2.446E-01	 5.927E-01	-2.463E-01	-1.339E+00	 8.983E-01	-4.775E-02	-4.415E+00	 4.679E+00	 5.917E+00	 2.088E-02
