
These predictions were generated by FAST (v7.00.02a-bjj, 26-Jan-2012) on 26-Jan-2012 at 20:07:57.
The aerodynamic calculations were made by AeroDyn (v13.00.01a-bjj, 30-Jan-2012).

 FAST certification Test #08: AOC 15/50 with many DOFs with fixed yaw error and steady wind.

    Time	LSSGagPxa	TipDxb1	TipDxb2	TipDyb1	TipDyb2	RollDefl1	RollDefl2	PtchDefl1	PtchDefl2	Spn1ALxb1	Spn1ALyb1	HSShftV	TTDspRoll	TTDspPtch	YawBrRVxp	YawBrRVyp	YawBrRAxp	YawBrRAyp	RootFxb1	RootFyb1	Spn2MLxb1	Spn2MLyb1	LSShftFya	LSShftFza	YawBrFxn	YawBrFyn
   (sec)	(deg)	(m)	(m)	(m)	(m)	(deg)	(deg)	(deg)	(deg)	(m/sec^2)	(m/sec^2)	(rpm)	(deg)	(deg)	(deg/sec)	(deg/sec)	(deg/sec2)	(deg/sec2)	(kN)	(kN)	(kN·m)	(kN·m)	(kN)	(kN)	(kN)	(kN)
  10.000	 2.484E+02	 1.043E-02	-7.863E-03	 1.731E-03	-2.722E-03	-2.703E-02	 3.649E-02	 9.790E-02	-2.208E-01	 4.947E+00	 5.419E-01	 1.812E+03	 3.867E-02	 1.052E-01	-4.418E-03	-5.417E-02	-5.073E-01	-1.459E+00	 3.339E-01	 8.486E-01	-3.115E-01	 4.273E-01	 6.044E+00	 2.392E+00	 6.638E+00	-9.249E-02
  10.050	 2.676E+02	 6.122E-03	-8.636E-03	 2.365E-03	-4.885E-03	-3.601E-02	 6.715E-02	 1.159E-02	-2.259E-01	 5.043E+00	 6.042E-01	 1.812E+03	 3.801E-02	 1.015E-01	-2.104E-02	-7.918E-02	-3.445E-01	 1.749E-01	 2.392E-01	 9.435E-01	-3.822E-01	 2.414E-01	 6.457E+00	 1.896E-01	 6.350E+00	-1.291E-01
  10.100	 2.869E+02	 6.046E-04	-5.520E-03	 2.528E-03	-6.412E-03	-3.805E-02	 8.861E-02	-8.530E-02	-1.661E-01	 5.202E+00	 5.862E-01	 1.812E+03	 3.652E-02	 9.721E-02	-3.758E-02	-1.085E-01	-1.437E-01	-1.110E+00	 6.728E-02	 9.047E-01	-3.599E-01	 3.679E-02	 6.217E+00	-1.940E+00	 6.050E+00	-9.900E-02
  10.150	 3.061E+02	-5.049E-04	-3.386E-03	 1.618E-03	-7.611E-03	-2.524E-02	 1.054E-01	-1.062E-01	-1.275E-01	 5.324E+00	 6.403E-01	 1.812E+03	 3.479E-02	 9.219E-02	-3.213E-02	-7.686E-02	-2.762E-01	-1.284E-01	 1.863E-02	 6.968E-01	-2.103E-01	 3.945E-03	 5.210E+00	-3.946E+00	 5.668E+00	-1.242E-01
  10.200	 3.254E+02	 1.045E-04	-4.877E-03	 6.960E-04	-8.177E-03	-1.178E-02	 1.130E-01	-7.534E-02	-1.690E-01	 5.423E+00	 6.813E-01	 1.812E+03	 3.310E-02	 8.772E-02	-2.515E-02	-7.278E-02	 4.367E-01	 1.904E+00	-5.680E-02	 4.230E-01	-9.097E-02	 4.484E-02	 3.744E+00	-5.402E+00	 5.313E+00	-4.147E-02
  10.250	 3.446E+02	-3.735E-03	-6.898E-03	-1.035E-03	-7.656E-03	 1.284E-02	 1.053E-01	-1.385E-01	-2.231E-01	 5.501E+00	 6.696E-01	 1.812E+03	 3.167E-02	 8.502E-02	-3.262E-02	-4.469E-02	 4.456E-01	 1.464E+00	-2.312E-01	-9.729E-03	 2.016E-01	-8.051E-02	 1.704E+00	-6.248E+00	 5.337E+00	-1.254E-02
  10.300	 3.853E+00	-9.318E-03	-5.631E-03	-2.227E-03	-7.178E-03	 2.976E-02	 9.840E-02	-2.401E-01	-2.057E-01	 5.490E+00	 6.305E-01	 1.812E+03	 3.088E-02	 8.524E-02	-5.329E-03	 3.385E-02	 9.221E-02	 4.939E-02	-4.148E-01	-4.171E-01	 3.969E-01	-2.795E-01	-4.047E-01	-6.478E+00	 5.475E+00	 3.364E-02
  10.350	 2.310E+01	-1.046E-02	-2.164E-03	-4.202E-03	-5.900E-03	 5.755E-02	 8.047E-02	-2.615E-01	-1.374E-01	 5.447E+00	 5.968E-01	 1.812E+03	 3.094E-02	 8.754E-02	 1.125E-02	 7.337E-02	 3.779E-01	 1.477E+00	-4.742E-01	-8.850E-01	 6.954E-01	-3.001E-01	-2.518E+00	-5.904E+00	 5.511E+00	 5.932E-02
  10.400	 4.234E+01	-6.455E-03	-9.237E-04	-6.072E-03	-4.323E-03	 8.376E-02	 5.834E-02	-1.867E-01	-1.119E-01	 5.235E+00	 5.921E-01	 1.812E+03	 3.184E-02	 9.251E-02	 2.252E-02	 1.033E-01	 1.472E-01	-8.433E-01	-3.711E-01	-1.287E+00	 9.181E-01	-1.399E-01	-4.389E+00	-4.814E+00	 5.771E+00	 8.029E-02
  10.450	 6.158E+01	-2.287E-03	-3.392E-03	-7.353E-03	-2.043E-03	 1.019E-01	 2.705E-02	-1.018E-01	-1.303E-01	 5.191E+00	 5.599E-01	 1.812E+03	 3.339E-02	 9.735E-02	 4.193E-02	 1.135E-01	 2.408E-01	 8.956E-01	-3.029E-01	-1.570E+00	 1.054E+00	 1.393E-02	-5.748E+00	-3.039E+00	 5.874E+00	 2.793E-02
  10.500	 8.082E+01	-2.726E-03	-5.296E-03	-8.285E-03	-3.940E-04	 1.145E-01	 2.988E-03	-1.281E-01	-2.011E-01	 5.090E+00	 6.053E-01	 1.812E+03	 3.535E-02	 1.019E-01	 3.960E-02	 6.050E-02	 3.563E-01	-1.735E-01	-2.894E-01	-1.765E+00	 1.183E+00	-2.055E-02	-6.541E+00	-1.056E+00	 6.155E+00	 3.314E-02
  10.550	 1.001E+02	-5.292E-03	 1.723E-03	-7.833E-03	 5.058E-04	 1.078E-01	-1.028E-02	-1.929E-01	-8.910E-02	 5.034E+00	 6.203E-01	 1.812E+03	 3.714E-02	 1.044E-01	 1.972E-02	 1.743E-02	-5.994E-01	-1.365E+00	-3.174E-01	-1.733E+00	 1.116E+00	-1.292E-01	-6.416E+00	 1.138E+00	 6.504E+00	-2.896E-02
  10.600	 1.193E+02	-5.485E-03	 9.692E-03	-7.422E-03	 1.656E-03	 1.018E-01	-2.584E-02	-2.048E-01	 8.908E-02	 5.024E+00	 6.147E-01	 1.812E+03	 3.799E-02	 1.049E-01	 1.498E-02	 1.755E-03	-4.515E-01	-1.319E+00	-2.978E-01	-1.606E+00	 1.064E+00	-1.377E-01	-5.701E+00	 3.220E+00	 6.599E+00	-7.447E-02
  10.650	 1.385E+02	-2.636E-03	 9.281E-03	-6.281E-03	 1.917E-03	 8.579E-02	-2.899E-02	-1.477E-01	 1.007E-01	 5.050E+00	 5.767E-01	 1.812E+03	 3.816E-02	 1.033E-01	-4.421E-03	-5.263E-02	-2.259E-01	-2.757E-01	-2.169E-01	-1.304E+00	 8.755E-01	-3.561E-02	-4.251E+00	 4.850E+00	 6.461E+00	-9.205E-02
  10.700	 1.578E+02	-8.885E-04	 2.634E-03	-4.694E-03	 2.675E-03	 6.353E-02	-4.036E-02	-1.124E-01	-5.581E-02	 5.135E+00	 5.937E-01	 1.812E+03	 3.751E-02	 1.004E-01	-2.272E-02	-6.471E-02	-3.851E-01	-8.141E-01	-1.782E-01	-9.037E-01	 6.421E-01	 2.126E-02	-2.399E+00	 6.061E+00	 6.261E+00	-1.167E-01
  10.750	 1.770E+02	-2.290E-03	-7.998E-04	-2.714E-03	 2.109E-03	 3.637E-02	-3.261E-02	-1.131E-01	-1.298E-01	 5.330E+00	 6.178E-01	 1.812E+03	 3.611E-02	 9.607E-02	-2.739E-02	-9.110E-02	 2.039E-01	 1.061E+00	-2.257E-01	-4.408E-01	 3.858E-01	-5.195E-02	-2.614E-01	 6.467E+00	 5.871E+00	-1.130E-01
  10.800	 1.963E+02	-5.826E-03	 4.119E-04	-5.400E-04	 1.144E-03	 4.298E-03	-1.820E-02	-2.401E-01	-7.412E-02	 5.303E+00	 5.999E-01	 1.812E+03	 3.464E-02	 9.203E-02	-3.367E-02	-9.519E-02	 1.810E-01	-4.155E-01	-1.458E-01	 2.879E-02	 1.013E-01	-1.808E-01	 1.919E+00	 6.322E+00	 5.671E+00	-8.273E-02
  10.850	 2.155E+02	-3.643E-04	-9.618E-04	 1.482E-04	-1.865E-04	-5.150E-03	 9.940E-04	-1.257E-01	-8.168E-02	 5.335E+00	 6.321E-01	 1.812E+03	 3.327E-02	 8.817E-02	-3.073E-02	-6.191E-02	-5.384E-01	-1.716E-01	 1.845E-02	 3.577E-01	-1.145E-02	 4.125E-02	 3.769E+00	 5.307E+00	 5.534E+00	-5.114E-02
  10.900	 2.348E+02	 8.200E-03	-6.681E-03	 1.493E-03	-1.746E-03	-2.298E-02	 2.294E-02	 8.170E-02	-1.913E-01	 5.453E+00	 6.610E-01	 1.812E+03	 3.175E-02	 8.593E-02	-1.829E-02	-5.931E-03	 5.187E-01	 1.546E+00	 1.350E-01	 7.231E-01	-2.749E-01	 3.746E-01	 5.320E+00	 3.745E+00	 5.409E+00	-1.007E-02
  10.950	 2.540E+02	 8.986E-03	-1.088E-02	 1.805E-03	-3.103E-03	-2.748E-02	 4.188E-02	 9.250E-02	-2.780E-01	 5.438E+00	 6.789E-01	 1.812E+03	 3.117E-02	 8.658E-02	-5.543E-03	 2.699E-02	 3.732E-01	 8.093E-01	 1.819E-01	 8.713E-01	-3.035E-01	 3.801E-01	 6.172E+00	 1.805E+00	 5.496E+00	 4.934E-02
  11.000	 2.732E+02	 2.470E-03	-8.857E-03	 2.670E-03	-5.337E-03	-4.047E-02	 7.348E-02	-6.599E-02	-2.314E-01	 5.374E+00	 6.494E-01	 1.812E+03	 3.134E-02	 8.932E-02	 1.141E-02	 8.615E-02	 2.574E-01	 9.610E-01	 1.357E-01	 9.584E-01	-4.029E-01	 9.994E-02	 6.460E+00	-3.964E-01	 5.595E+00	 5.018E-02
  11.050	 2.925E+02	-1.788E-03	-3.881E-03	 2.427E-03	-6.734E-03	-3.696E-02	 9.323E-02	-1.445E-01	-1.304E-01	 5.330E+00	 6.179E-01	 1.812E+03	 3.216E-02	 9.353E-02	 2.385E-02	 7.571E-02	 5.177E-01	 5.022E-01	 3.034E-02	 8.606E-01	-3.243E-01	-5.496E-02	 5.982E+00	-2.499E+00	 5.744E+00	 6.721E-02
  11.100	 3.117E+02	-4.126E-04	-2.216E-03	 1.413E-03	-7.979E-03	-2.203E-02	 1.103E-01	-9.206E-02	-1.138E-01	 5.228E+00	 5.490E-01	 1.812E+03	 3.382E-02	 9.824E-02	 3.306E-02	 8.428E-02	-1.879E-01	-1.835E+00	-2.041E-02	 6.399E-01	-1.810E-01	 1.864E-02	 4.883E+00	-4.436E+00	 6.072E+00	 2.909E-02
  11.150	 3.310E+02	 4.561E-04	-4.234E-03	 2.395E-04	-8.097E-03	-5.156E-03	 1.118E-01	-6.038E-02	-1.616E-01	 5.080E+00	 5.961E-01	 1.812E+03	 3.568E-02	 1.015E-01	 3.869E-02	 6.188E-02	-5.769E-01	-9.116E-01	-6.067E-02	 3.156E-01	-2.346E-02	 6.735E-02	 3.222E+00	-5.719E+00	 6.232E+00	 1.181E-02
  11.200	 3.502E+02	-3.461E-03	-5.962E-03	-1.564E-03	-7.646E-03	 2.021E-02	 1.050E-01	-1.361E-01	-2.098E-01	 5.051E+00	 6.130E-01	 1.812E+03	 3.688E-02	 1.032E-01	 2.012E-02	 2.321E-02	 2.574E-01	 5.115E-01	-1.876E-01	-1.380E-01	 2.724E-01	-7.103E-02	 1.081E+00	-6.436E+00	 6.368E+00	-3.808E-02
  11.250	 9.452E+00	-8.186E-03	-4.081E-03	-2.803E-03	-6.937E-03	 3.761E-02	 9.496E-02	-2.277E-01	-1.779E-01	 5.003E+00	 6.192E-01	 1.812E+03	 3.774E-02	 1.037E-01	 7.446E-03	-1.971E-02	-3.781E-01	-1.189E+00	-3.207E-01	-5.572E-01	 4.656E-01	-2.411E-01	-1.058E+00	-6.405E+00	 6.538E+00	-6.272E-02
  11.300	 2.869E+01	-8.280E-03	-1.234E-03	-5.006E-03	-5.446E-03	 6.885E-02	 7.404E-02	-2.193E-01	-1.213E-01	 5.105E+00	 6.381E-01	 1.812E+03	 3.779E-02	 1.020E-01	-5.614E-03	-3.669E-02	-3.584E-01	 6.787E-03	-3.976E-01	-1.038E+00	 7.939E-01	-2.184E-01	-3.170E+00	-5.641E+00	 6.380E+00	-1.115E-01
  11.350	 4.794E+01	-4.917E-03	-1.371E-03	-6.496E-03	-3.774E-03	 8.981E-02	 5.054E-02	-1.536E-01	-1.240E-01	 5.118E+00	 6.285E-01	 1.812E+03	 3.702E-02	 9.945E-02	-2.336E-02	-7.970E-02	-8.648E-02	-9.425E-01	-3.420E-01	-1.385E+00	 9.600E-01	-8.285E-02	-4.875E+00	-4.321E+00	 6.150E+00	-9.855E-02
  11.400	 6.718E+01	-3.095E-03	-5.214E-03	-7.699E-03	-1.226E-03	 1.066E-01	 1.444E-02	-1.242E-01	-2.088E-01	 5.243E+00	 6.457E-01	 1.812E+03	 3.595E-02	 9.576E-02	-2.357E-02	-6.339E-02	-4.646E-01	-8.124E-01	-3.172E-01	-1.654E+00	 1.107E+00	-2.430E-02	-6.087E+00	-2.429E+00	 5.894E+00	-1.360E-01
  11.450	 8.642E+01	-4.783E-03	-3.631E-03	-8.175E-03	-2.779E-04	 1.130E-01	 1.779E-03	-1.682E-01	-1.525E-01	 5.367E+00	 6.189E-01	 1.812E+03	 3.459E-02	 9.164E-02	-2.196E-02	-7.444E-02	 9.863E-02	 1.042E+00	-3.702E-01	-1.770E+00	 1.176E+00	-9.747E-02	-6.568E+00	-4.220E-01	 5.562E+00	-6.568E-02
  11.500	 1.057E+02	-6.755E-03	 4.807E-03	-7.656E-03	 9.119E-04	 1.053E-01	-1.525E-02	-2.205E-01	-8.522E-04	 5.437E+00	 5.935E-01	 1.812E+03	 3.308E-02	 8.823E-02	-3.467E-02	-5.863E-02	 4.274E-01	 1.487E+00	-3.912E-01	-1.699E+00	 1.105E+00	-1.787E-01	-6.235E+00	 1.775E+00	 5.516E+00	-4.233E-02
  11.550	 1.249E+02	-5.419E-03	 9.734E-03	-7.140E-03	 1.710E-03	 9.788E-02	-2.682E-02	-2.018E-01	 8.092E-02	 5.427E+00	 6.363E-01	 1.812E+03	 3.194E-02	 8.714E-02	-1.652E-02	-2.034E-03	 7.815E-02	 2.401E-01	-3.282E-01	-1.534E+00	 1.024E+00	-1.316E-01	-5.332E+00	 3.692E+00	 5.581E+00	 4.939E-03
  11.600	 1.441E+02	-2.127E-03	 6.104E-03	-5.802E-03	 2.225E-03	 7.907E-02	-3.365E-02	-1.374E-01	 2.653E-02	 5.351E+00	 6.338E-01	 1.812E+03	 3.143E-02	 8.780E-02	-2.130E-03	 3.739E-02	 3.093E-01	 1.302E+00	-2.175E-01	-1.194E+00	 8.023E-01	-1.628E-02	-3.751E+00	 5.215E+00	 5.533E+00	 3.531E-02
  11.650	 1.634E+02	-1.134E-03	-3.536E-04	-4.224E-03	 2.732E-03	 5.694E-02	-4.086E-02	-1.164E-01	-1.018E-01	 5.303E+00	 6.707E-01	 1.812E+03	 3.163E-02	 9.097E-02	 8.529E-03	 6.856E-02	 1.772E-01	-7.414E-01	-1.998E-01	-7.841E-01	 5.822E-01	 1.418E-02	-1.859E+00	 6.242E+00	 5.676E+00	 7.061E-02
  11.700	 1.826E+02	-3.603E-03	-1.815E-03	-1.887E-03	 1.886E-03	 2.488E-02	-2.921E-02	-1.337E-01	-1.397E-01	 5.375E+00	 6.713E-01	 1.812E+03	 3.258E-02	 9.446E-02	 3.131E-02	 9.438E-02	 2.277E-01	 9.388E-01	-3.261E-01	-2.804E-01	 2.706E-01	-7.225E-02	 3.650E-01	 6.493E+00	 5.705E+00	 2.715E-02
  11.750	 2.019E+02	-4.817E-03	 5.970E-04	-3.930E-04	 9.343E-04	 3.069E-03	-1.521E-02	-1.882E-01	-6.862E-02	 5.293E+00	 6.432E-01	 1.812E+03	 3.409E-02	 9.824E-02	 3.495E-02	 5.613E-02	 5.316E-01	 5.106E-01	-2.163E-01	 1.163E-01	 9.203E-02	-1.203E-01	 2.451E+00	 6.142E+00	 5.927E+00	 5.154E-02
  11.800	 2.211E+02	 2.112E-03	-1.181E-03	 5.899E-04	-7.881E-04	-1.146E-02	 9.353E-03	-8.152E-02	-8.972E-02	 5.057E+00	 5.960E-01	 1.812E+03	 3.575E-02	 1.010E-01	 1.963E-02	 2.943E-02	-4.388E-01	-1.067E+00	 1.262E-01	 4.778E-01	-9.795E-02	 1.310E-01	 4.281E+00	 4.904E+00	 6.308E+00	-5.394E-03
  11.850	 2.404E+02	 9.358E-03	-6.413E-03	 1.704E-03	-2.142E-03	-2.656E-02	 2.852E-02	 8.064E-02	-1.854E-01	 5.021E+00	 5.527E-01	 1.812E+03	 3.680E-02	 1.025E-01	 2.218E-02	 2.864E-02	-3.286E-01	-1.037E+00	 2.865E-01	 7.947E-01	-3.117E-01	 3.971E-01	 5.686E+00	 3.231E+00	 6.456E+00	-4.536E-02
  11.900	 2.596E+02	 8.644E-03	-9.142E-03	 1.973E-03	-3.895E-03	-2.973E-02	 5.307E-02	 9.014E-02	-2.421E-01	 5.089E+00	 6.037E-01	 1.812E+03	 3.746E-02	 1.024E-01	 6.618E-03	-2.093E-02	-2.138E-01	-2.742E-01	 1.889E-01	 9.093E-01	-3.267E-01	 3.634E-01	 6.346E+00	 1.142E+00	 6.409E+00	-6.983E-02
  11.950	 2.788E+02	 2.304E-03	-6.690E-03	 2.685E-03	-5.928E-03	-4.047E-02	 8.170E-02	-6.089E-02	-1.930E-01	 5.100E+00	 5.633E-01	 1.812E+03	 3.744E-02	 1.013E-01	-9.095E-03	-2.926E-02	-4.085E-01	-1.145E+00	 1.304E-01	 9.537E-01	-4.020E-01	 9.630E-02	 6.438E+00	-1.065E+00	 6.315E+00	-9.913E-02
  12.000	 2.981E+02	-6.539E-04	-3.066E-03	 2.052E-03	-7.130E-03	-3.186E-02	 9.878E-02	-1.293E-01	-1.158E-01	 5.165E+00	 6.543E-01	 1.812E+03	 3.667E-02	 9.835E-02	-1.482E-02	-6.404E-02	 2.152E-01	 1.214E+00	 9.471E-02	 7.911E-01	-2.773E-01	-1.478E-02	 5.678E+00	-3.122E+00	 5.967E+00	-1.154E-01
  12.050	 3.173E+02	 7.319E-04	-3.521E-03	 1.089E-03	-8.190E-03	-1.740E-02	 1.132E-01	-6.647E-02	-1.436E-01	 5.252E+00	 6.191E-01	 1.812E+03	 3.571E-02	 9.522E-02	-2.559E-02	-8.638E-02	 1.566E-01	-4.022E-01	-3.354E-03	 5.547E-01	-1.482E-01	 5.888E-02	 4.438E+00	-4.907E+00	 5.834E+00	-9.028E-02
  12.100	 3.366E+02	-9.387E-04	-6.116E-03	-3.146E-04	-7.856E-03	 2.801E-03	 1.082E-01	-8.084E-02	-2.035E-01	 5.308E+00	 6.658E-01	 1.812E+03	 3.457E-02	 9.153E-02	-3.099E-02	-7.115E-02	-6.621E-01	-6.437E-01	-1.448E-01	 1.790E-01	 7.312E-02	 2.101E-02	 2.592E+00	-5.970E+00	 5.753E+00	-7.296E-02
  12.150	 3.558E+02	-6.610E-03	-6.634E-03	-1.827E-03	-7.459E-03	 2.406E-02	 1.024E-01	-1.908E-01	-2.231E-01	 5.412E+00	 6.531E-01	 1.812E+03	 3.301E-02	 8.875E-02	-2.088E-02	-1.940E-02	 3.292E-01	 1.025E+00	-3.238E-01	-2.552E-01	 3.282E-01	-1.837E-01	 4.601E-01	-6.495E+00	 5.598E+00	-3.651E-02
  12.200	 1.505E+01	-1.059E-02	-3.615E-03	-3.246E-03	-6.530E-03	 4.388E-02	 8.934E-02	-2.728E-01	-1.654E-01	 5.409E+00	 6.171E-01	 1.812E+03	 3.206E-02	 8.806E-02	-1.527E-02	-4.538E-03	 3.763E-01	 1.058E+00	-4.281E-01	-6.858E-01	 5.514E-01	-3.204E-01	-1.646E+00	-6.212E+00	 5.567E+00	 2.287E-02
  12.250	 3.429E+01	-8.697E-03	-1.060E-03	-5.440E-03	-4.977E-03	 7.493E-02	 6.753E-02	-2.283E-01	-1.151E-01	 5.383E+00	 6.071E-01	 1.812E+03	 3.171E-02	 8.937E-02	-1.392E-03	 5.339E-02	 1.290E-01	 5.542E-01	-4.344E-01	-1.144E+00	 8.559E-01	-2.267E-01	-3.679E+00	-5.334E+00	 5.608E+00	 3.211E-02
  12.300	 5.353E+01	-4.061E-03	-1.912E-03	-6.774E-03	-3.203E-03	 9.383E-02	 4.268E-02	-1.326E-01	-1.280E-01	 5.352E+00	 5.654E-01	 1.812E+03	 3.189E-02	 9.193E-02	 1.329E-02	 5.203E-02	 5.969E-01	 9.419E-01	-3.589E-01	-1.453E+00	 9.888E-01	-4.488E-02	-5.220E+00	-3.825E+00	 5.648E+00	 5.713E-02
  12.350	 7.278E+01	-2.675E-03	-6.284E-03	-8.013E-03	-7.052E-04	 1.108E-01	 6.402E-03	-1.243E-01	-2.575E-01	 5.206E+00	 6.363E-01	 1.812E+03	 3.302E-02	 9.561E-02	 2.282E-02	 6.347E-02	-4.504E-02	-1.566E+00	-2.884E-01	-1.712E+00	 1.147E+00	-1.335E-02	-6.322E+00	-1.899E+00	 5.907E+00	 3.720E-02
  12.400	 9.202E+01	-4.516E-03	-2.000E-03	-8.047E-03	-4.476E-05	 1.110E-01	-2.046E-03	-1.684E-01	-1.423E-01	 5.150E+00	 6.317E-01	 1.812E+03	 3.454E-02	 9.838E-02	 3.321E-02	 5.830E-02	-5.604E-01	-8.263E-01	-3.341E-01	-1.760E+00	 1.146E+00	-9.217E-02	-6.551E+00	 1.825E-01	 6.059E+00	 2.797E-02
  12.450	 1.113E+02	-5.922E-03	 7.299E-03	-7.625E-03	 1.329E-03	 1.048E-01	-2.060E-02	-2.081E-01	 6.710E-02	 5.123E+00	 5.825E-01	 1.812E+03	 3.562E-02	 1.002E-01	 2.226E-02	 3.757E-02	 3.690E-01	 7.904E-01	-3.350E-01	-1.671E+00	 1.097E+00	-1.511E-01	-6.070E+00	 2.384E+00	 6.200E+00	-1.333E-02
  12.500	 1.305E+02	-3.915E-03	 1.009E-02	-6.868E-03	 1.758E-03	 9.403E-02	-2.718E-02	-1.733E-01	 9.996E-02	 5.100E+00	 6.070E-01	 1.812E+03	 3.670E-02	 1.017E-01	 1.465E-02	 4.933E-03	-2.241E-01	-8.978E-01	-2.584E-01	-1.452E+00	 9.718E-01	-8.020E-02	-4.936E+00	 4.196E+00	 6.414E+00	-3.408E-02
  12.550	 1.497E+02	-1.186E-03	 4.877E-03	-5.358E-03	 2.489E-03	 7.280E-02	-3.791E-02	-1.209E-01	-1.844E-02	 5.090E+00	 5.932E-01	 1.812E+03	 3.721E-02	 1.015E-01	 4.478E-03	-6.204E-03	-2.956E-01	 1.111E-01	-1.658E-01	-1.077E+00	 7.332E-01	 1.267E-02	-3.201E+00	 5.625E+00	 6.339E+00	-9.074E-02
  12.600	 1.690E+02	-1.428E-03	-6.870E-05	-3.671E-03	 2.494E-03	 4.908E-02	-3.770E-02	-1.255E-01	-1.035E-01	 5.090E+00	 5.958E-01	 1.812E+03	 3.702E-02	 1.004E-01	-1.107E-02	-5.345E-02	-9.541E-02	-1.047E+00	-2.451E-01	-6.347E-01	 5.109E-01	 4.107E-03	-1.188E+00	 6.408E+00	 6.193E+00	-8.824E-02
  12.650	 1.882E+02	-5.076E-03	-2.556E-05	-1.127E-03	 1.493E-03	 1.291E-02	-2.334E-02	-2.115E-01	-9.160E-02	 5.178E+00	 5.797E-01	 1.812E+03	 3.652E-02	 9.795E-02	-1.347E-02	-4.373E-02	-5.405E-01	-1.393E+00	-1.738E-01	-1.303E-01	 1.643E-01	-1.541E-01	 1.058E+00	 6.484E+00	 6.044E+00	-1.322E-01
  12.700	 2.075E+02	-2.783E-03	 7.633E-04	-2.776E-04	 5.060E-04	 1.800E-03	-9.047E-03	-1.352E-01	-6.001E-02	 5.373E+00	 6.202E-01	 1.812E+03	 3.561E-02	 9.445E-02	-1.476E-02	-6.155E-02	-4.255E-02	 1.020E+00	-1.932E-01	 2.086E-01	 7.145E-02	-3.369E-02	 3.023E+00	 5.837E+00	 5.735E+00	-8.048E-02
  12.750	 2.267E+02	 5.341E-03	-3.507E-03	 1.015E-03	-1.269E-03	-1.659E-02	 1.607E-02	 1.367E-02	-1.366E-01	 5.341E+00	 6.376E-01	 1.812E+03	 3.426E-02	 9.119E-02	-3.400E-02	-6.617E-02	 4.057E-01	 1.358E+00	 9.330E-02	 5.911E-01	-1.861E-01	 2.642E-01	 4.750E+00	 4.424E+00	 5.685E+00	-6.447E-02
  12.800	 2.460E+02	 9.533E-03	-9.263E-03	 1.723E-03	-2.412E-03	-2.704E-02	 3.228E-02	 7.594E-02	-2.422E-01	 5.276E+00	 6.150E-01	 1.812E+03	 3.307E-02	 8.958E-02	-2.087E-02	-2.083E-02	-7.875E-02	-2.919E-01	 3.025E-01	 8.271E-01	-3.084E-01	 3.932E-01	 5.914E+00	 2.662E+00	 5.735E+00	-1.728E-02
  12.850	 2.652E+02	 5.863E-03	-1.022E-02	 2.279E-03	-4.478E-03	-3.450E-02	 6.146E-02	 1.854E-02	-2.552E-01	 5.374E+00	 6.780E-01	 1.812E+03	 3.220E-02	 8.900E-02	-1.151E-02	 1.282E-02	 2.397E-01	 1.369E+00	 1.591E-01	 9.322E-01	-3.624E-01	 2.421E-01	 6.405E+00	 5.132E-01	 5.601E+00	 9.450E-03
  12.900	 2.844E+02	-6.626E-05	-6.314E-03	 2.669E-03	-6.196E-03	-3.995E-02	 8.555E-02	-9.534E-02	-1.825E-01	 5.406E+00	 5.954E-01	 1.812E+03	 3.186E-02	 9.078E-02	-2.829E-03	 3.683E-02	 1.951E-01	-7.236E-01	 1.462E-02	 9.263E-01	-3.769E-01	 1.349E-02	 6.301E+00	-1.629E+00	 5.663E+00	 5.716E-02
  12.950	 3.037E+02	-1.457E-03	-2.724E-03	 1.818E-03	-7.458E-03	-2.818E-02	 1.033E-01	-1.297E-01	-1.120E-01	 5.364E+00	 6.285E-01	 1.812E+03	 3.226E-02	 9.296E-02	 2.019E-02	 7.229E-02	 1.647E-01	 7.723E-01	 8.434E-03	 7.316E-01	-2.330E-01	-3.496E-02	 5.377E+00	-3.669E+00	 5.643E+00	 2.165E-02
  13.000	 3.229E+02	 1.955E-04	-3.488E-03	 8.919E-04	-8.250E-03	-1.461E-02	 1.141E-01	-7.632E-02	-1.420E-01	 5.249E+00	 5.969E-01	 1.812E+03	 3.331E-02	 9.579E-02	 2.808E-02	 4.568E-02	 5.079E-01	 6.373E-01	-2.866E-02	 4.764E-01	-1.197E-01	 4.561E-02	 4.002E+00	-5.258E+00	 5.776E+00	 5.948E-02
  13.050	 3.422E+02	-2.019E-03	-5.783E-03	-8.492E-04	-7.759E-03	 1.020E-02	 1.067E-01	-1.065E-01	-2.019E-01	 5.178E+00	 6.125E-01	 1.812E+03	 3.460E-02	 9.803E-02	 1.628E-02	 2.936E-02	-9.193E-02	-1.872E-01	-1.546E-01	 5.095E-02	 1.613E-01	-1.845E-02	 1.992E+00	-6.185E+00	 6.107E+00	 1.491E-02
  13.100	 1.406E+00	-6.967E-03	-5.293E-03	-2.186E-03	-7.340E-03	 2.914E-02	 1.006E-01	-1.963E-01	-2.013E-01	 5.122E+00	 6.098E-01	 1.812E+03	 3.569E-02	 1.000E-01	 2.310E-02	 3.692E-02	-3.261E-01	-1.099E+00	-3.169E-01	-3.719E-01	 3.745E-01	-1.959E-01	-1.539E-01	-6.529E+00	 6.329E+00	-1.942E-02
  13.150	 2.065E+01	-9.020E-03	-2.182E-03	-4.021E-03	-6.113E-03	 5.491E-02	 8.343E-02	-2.373E-01	-1.395E-01	 5.099E+00	 6.135E-01	 1.812E+03	 3.656E-02	 1.008E-01	 1.471E-02	 6.539E-03	-1.136E-01	-5.102E-02	-3.911E-01	-8.360E-01	 6.555E-01	-2.547E-01	-2.293E+00	-6.022E+00	 6.312E+00	-4.678E-02
  13.200	 3.989E+01	-6.367E-03	-7.992E-04	-5.999E-03	-4.525E-03	 8.270E-02	 6.116E-02	-1.865E-01	-1.104E-01	 5.053E+00	 6.347E-01	 1.812E+03	 3.697E-02	 1.010E-01	-3.215E-05	-7.656E-03	-3.534E-01	-1.211E+00	-3.471E-01	-1.259E+00	 9.105E-01	-1.418E-01	-4.227E+00	-4.974E+00	 6.290E+00	-7.780E-02
  13.250	 5.913E+01	-2.954E-03	-2.623E-03	-7.199E-03	-2.410E-03	 9.971E-02	 3.230E-02	-1.150E-01	-1.121E-01	 5.166E+00	 5.930E-01	 1.812E+03	 3.679E-02	 9.938E-02	-2.651E-03	-3.432E-02	 6.979E-02	 8.701E-01	-3.150E-01	-1.541E+00	 1.038E+00	-8.382E-03	-5.615E+00	-3.255E+00	 6.018E+00	-1.128E-01
  13.300	 7.837E+01	-3.480E-03	-5.538E-03	-8.223E-03	-4.550E-04	 1.136E-01	 3.388E-03	-1.430E-01	-2.237E-01	 5.233E+00	 6.355E-01	 1.812E+03	 3.630E-02	 9.721E-02	-1.572E-02	-7.002E-02	 2.080E-01	-2.736E-01	-3.143E-01	-1.758E+00	 1.182E+00	-4.754E-02	-6.494E+00	-1.278E+00	 5.939E+00	-9.018E-02
  13.350	 9.762E+01	-5.959E-03	 6.890E-04	-7.846E-03	 2.962E-04	 1.081E-01	-7.366E-03	-2.021E-01	-1.106E-01	 5.283E+00	 6.374E-01	 1.812E+03	 3.552E-02	 9.409E-02	-2.745E-02	-6.732E-02	-6.872E-01	-7.280E-01	-3.717E-01	-1.739E+00	 1.125E+00	-1.463E-01	-6.449E+00	 8.672E-01	 5.908E+00	-8.807E-02
  13.400	 1.169E+02	-6.361E-03	 9.014E-03	-7.448E-03	 1.577E-03	 1.022E-01	-2.435E-02	-2.189E-01	 9.018E-02	 5.330E+00	 6.078E-01	 1.812E+03	 3.408E-02	 9.126E-02	-2.170E-02	-3.016E-02	 1.619E-01	 6.581E-01	-3.535E-01	-1.624E+00	 1.075E+00	-1.663E-01	-5.806E+00	 2.962E+00	 5.758E+00	-5.817E-02
  13.450	 1.361E+02	-3.406E-03	 9.053E-03	-6.447E-03	 1.839E-03	 8.817E-02	-2.784E-02	-1.615E-01	 9.847E-02	 5.330E+00	 6.144E-01	 1.812E+03	 3.301E-02	 8.994E-02	-1.947E-02	-2.097E-02	 2.104E-01	 5.946E-01	-2.638E-01	-1.351E+00	 9.061E-01	-6.005E-02	-4.467E+00	 4.622E+00	 5.687E+00	-9.098E-04
  13.500	 1.553E+02	-1.093E-03	 2.132E-03	-4.895E-03	 2.700E-03	 6.638E-02	-4.087E-02	-1.156E-01	-7.124E-02	 5.337E+00	 6.509E-01	 1.812E+03	 3.229E-02	 9.015E-02	-9.550E-03	 3.226E-02	 1.416E-01	 6.062E-01	-1.996E-01	-9.600E-01	 6.703E-01	 1.788E-02	-2.669E+00	 5.909E+00	 5.646E+00	 1.322E-02
  13.550	 1.746E+02	-2.061E-03	-1.836E-03	-3.063E-03	 2.315E-03	 4.088E-02	-3.547E-02	-1.245E-01	-1.488E-01	 5.140E+00	 6.829E-01	 1.812E+03	 3.202E-02	 9.147E-02	 3.514E-03	 2.675E-02	 6.105E-01	 1.175E+00	-2.019E-01	-4.964E-01	 4.524E-01	-1.342E-02	-5.781E-01	 6.439E+00	 5.615E+00	 4.242E-02
  13.600	 1.938E+02	-5.947E-03	-3.188E-04	-6.812E-04	 1.317E-03	 6.073E-03	-2.062E-02	-2.507E-01	-8.783E-02	 5.236E+00	 6.371E-01	 1.812E+03	 3.266E-02	 9.403E-02	 1.373E-02	 4.041E-02	 7.348E-02	-1.307E+00	-1.200E-01	-2.156E-02	 1.137E-01	-1.941E-01	 1.625E+00	 6.399E+00	 5.814E+00	 4.061E-02
  13.650	 2.131E+02	-1.328E-03	-2.364E-04	 3.762E-06	 6.547E-05	-2.885E-03	-2.619E-03	-1.354E-01	-7.038E-02	 5.233E+00	 6.321E-01	 1.812E+03	 3.381E-02	 9.614E-02	 2.537E-02	 4.972E-02	-5.633E-01	-8.186E-01	-3.033E-02	 3.078E-01	 1.667E-02	 5.426E-03	 3.529E+00	 5.506E+00	 5.955E+00	 3.420E-02
  13.700	 2.323E+02	 7.424E-03	-4.724E-03	 1.399E-03	-1.653E-03	-2.155E-02	 2.150E-02	 7.060E-02	-1.584E-01	 5.248E+00	 6.247E-01	 1.812E+03	 3.468E-02	 9.786E-02	 2.180E-02	 4.381E-02	 4.325E-01	 9.288E-01	 1.148E-01	 6.902E-01	-2.567E-01	 3.471E-01	 5.168E+00	 3.977E+00	 6.065E+00	 3.403E-03
  13.750	 2.516E+02	 9.560E-03	-9.047E-03	 1.784E-03	-2.955E-03	-2.744E-02	 3.973E-02	 9.409E-02	-2.451E-01	 5.126E+00	 5.957E-01	 1.812E+03	 3.577E-02	 9.976E-02	 1.675E-02	 1.677E-02	-1.266E-01	-6.565E-01	 2.565E-01	 8.639E-01	-3.078E-01	 3.973E-01	 6.130E+00	 2.069E+00	 6.289E+00	-1.093E-02
  13.800	 2.708E+02	 4.321E-03	-8.100E-03	 2.544E-03	-5.206E-03	-3.875E-02	 7.165E-02	-3.198E-02	-2.160E-01	 5.082E+00	 6.023E-01	 1.812E+03	 3.650E-02	 1.004E-01	 1.088E-02	 1.663E-02	-2.365E-01	 1.138E-01	 2.135E-01	 9.564E-01	-3.977E-01	 1.687E-01	 6.476E+00	-1.532E-01	 6.273E+00	-6.825E-02
  13.850	 2.900E+02	-8.501E-05	-4.124E-03	 2.442E-03	-6.636E-03	-3.704E-02	 9.180E-02	-1.064E-01	-1.370E-01	 5.121E+00	 5.853E-01	 1.812E+03	 3.667E-02	 1.003E-01	-2.149E-03	-3.284E-02	 1.905E-02	-6.925E-01	 7.517E-02	 8.808E-01	-3.410E-01	 8.574E-03	 6.097E+00	-2.283E+00	 6.172E+00	-7.189E-02
  13.900	 3.093E+02	 2.144E-04	-2.633E-03	 1.446E-03	-7.853E-03	-2.260E-02	 1.086E-01	-8.354E-02	-1.190E-01	 5.173E+00	 5.879E-01	 1.812E+03	 3.663E-02	 9.902E-02	-6.320E-03	-2.918E-02	-5.728E-01	-1.724E+00	 1.642E-02	 6.612E-01	-1.901E-01	 3.611E-02	 5.022E+00	-4.253E+00	 6.120E+00	-1.208E-01
  13.950	 3.285E+02	 6.012E-04	-4.683E-03	 4.261E-04	-8.143E-03	-7.880E-03	 1.125E-01	-6.140E-02	-1.676E-01	 5.188E+00	 6.544E-01	 1.812E+03	 3.614E-02	 9.632E-02	-8.246E-03	-5.063E-02	-3.065E-01	 2.381E-01	-5.020E-02	 3.614E-01	-5.377E-02	 6.799E-02	 3.444E+00	-5.600E+00	 5.878E+00	-8.384E-02
  14.000	 3.478E+02	-3.751E-03	-6.653E-03	-1.353E-03	-7.642E-03	 1.722E-02	 1.051E-01	-1.423E-01	-2.202E-01	 5.295E+00	 6.669E-01	 1.812E+03	 3.501E-02	 9.322E-02	-2.816E-02	-5.799E-02	 4.229E-01	 1.491E+00	-2.107E-01	-8.646E-02	 2.460E-01	-8.228E-02	 1.339E+00	-6.356E+00	 5.795E+00	-7.553E-02
  14.050	 7.004E+00	-9.157E-03	-5.028E-03	-2.520E-03	-7.039E-03	 3.374E-02	 9.643E-02	-2.422E-01	-1.950E-01	 5.325E+00	 6.415E-01	 1.812E+03	 3.392E-02	 9.148E-02	-2.257E-02	-3.416E-02	-1.034E-01	-2.479E-01	-3.830E-01	-4.956E-01	 4.346E-01	-2.754E-01	-7.758E-01	-6.436E+00	 5.840E+00	-3.491E-02
  14.100	 2.625E+01	-9.798E-03	-1.826E-03	-4.622E-03	-5.631E-03	 6.351E-02	 7.666E-02	-2.463E-01	-1.319E-01	 5.397E+00	 6.205E-01	 1.812E+03	 3.295E-02	 9.036E-02	-1.454E-02	 6.063E-04	 1.318E-01	 1.082E+00	-4.639E-01	-9.702E-01	 7.512E-01	-2.728E-01	-2.879E+00	-5.755E+00	 5.689E+00	-1.331E-02
  14.150	 4.549E+01	-6.072E-03	-1.276E-03	-6.273E-03	-4.026E-03	 8.666E-02	 5.415E-02	-1.764E-01	-1.193E-01	 5.300E+00	 6.056E-01	 1.812E+03	 3.233E-02	 9.116E-02	-1.014E-02	 1.367E-02	 2.355E-01	-5.308E-01	-3.800E-01	-1.339E+00	 9.401E-01	-1.239E-01	-4.646E+00	-4.555E+00	 5.679E+00	 3.893E-02
  14.200	 6.473E+01	-2.974E-03	-4.319E-03	-7.509E-03	-1.587E-03	 1.040E-01	 2.013E-02	-1.188E-01	-1.679E-01	 5.303E+00	 5.944E-01	 1.812E+03	 3.239E-02	 9.245E-02	 1.182E-02	 5.319E-02	 1.799E-02	 3.255E-01	-3.226E-01	-1.613E+00	 1.080E+00	-1.541E-02	-5.928E+00	-2.714E+00	 5.636E+00	 6.848E-03
  14.250	 8.397E+01	-3.819E-03	-4.266E-03	-8.234E-03	-3.526E-04	 1.138E-01	 2.743E-03	-1.485E-01	-1.683E-01	 5.285E+00	 6.017E-01	 1.812E+03	 3.302E-02	 9.430E-02	 2.162E-02	 3.411E-02	 5.002E-01	 9.396E-01	-3.385E-01	-1.768E+00	 1.181E+00	-6.021E-02	-6.558E+00	-7.216E-01	 5.689E+00	 5.522E-02
  14.300	 1.032E+02	-5.893E-03	 3.201E-03	-7.734E-03	 7.524E-04	 1.064E-01	-1.340E-02	-2.040E-01	-4.729E-02	 5.236E+00	 6.073E-01	 1.812E+03	 3.397E-02	 9.610E-02	 1.081E-02	 2.471E-02	 5.788E-02	 1.016E-01	-3.518E-01	-1.714E+00	 1.108E+00	-1.487E-01	-6.324E+00	 1.487E+00	 5.989E+00	 2.092E-02
  14.350	 1.225E+02	-5.209E-03	 9.393E-03	-7.291E-03	 1.725E-03	 9.995E-02	-2.700E-02	-1.991E-01	 7.560E-02	 5.168E+00	 6.287E-01	 1.812E+03	 3.489E-02	 9.804E-02	 2.130E-02	 4.013E-02	-2.185E-01	-7.792E-01	-3.005E-01	-1.569E+00	 1.043E+00	-1.263E-01	-5.511E+00	 3.488E+00	 6.208E+00	-3.557E-03
  14.400	 1.417E+02	-2.116E-03	 7.605E-03	-6.024E-03	 2.092E-03	 8.217E-02	-3.155E-02	-1.379E-01	 6.412E-02	 5.106E+00	 6.001E-01	 1.812E+03	 3.578E-02	 9.928E-02	 1.606E-02	 1.758E-02	-1.066E-01	 1.539E-02	-2.003E-01	-1.243E+00	 8.338E-01	-1.742E-02	-3.978E+00	 5.071E+00	 6.219E+00	-2.987E-02
  14.450	 1.609E+02	-8.613E-04	 1.388E-03	-4.434E-03	 2.701E-03	 5.987E-02	-4.055E-02	-1.116E-01	-7.323E-02	 5.126E+00	 6.133E-01	 1.812E+03	 3.637E-02	 1.003E-01	 5.982E-03	 9.889E-03	-2.905E-01	-1.349E+00	-1.795E-01	-8.357E-01	 6.073E-01	 2.116E-02	-2.090E+00	 6.186E+00	 6.242E+00	-5.407E-02
  14.500	 1.802E+02	-2.877E-03	-8.170E-04	-2.251E-03	 1.949E-03	 3.002E-02	-3.032E-02	-1.183E-01	-1.286E-01	 5.327E+00	 6.120E-01	 1.812E+03	 3.653E-02	 9.949E-02	 5.119E-03	-1.312E-02	 6.017E-02	 9.869E-01	-3.253E-01	-3.440E-01	 3.198E-01	-3.857E-02	 1.155E-01	 6.496E+00	 6.009E+00	-1.046E-01
  14.550	 1.994E+02	-5.092E-03	 9.789E-04	-4.477E-04	 9.967E-04	 3.557E-03	-1.611E-02	-2.044E-01	-6.215E-02	 5.253E+00	 5.898E-01	 1.812E+03	 3.642E-02	 9.813E-02	-6.930E-03	-5.441E-02	 2.506E-01	 8.046E-03	-1.887E-01	 8.214E-02	 9.431E-02	-1.388E-01	 2.243E+00	 6.227E+00	 5.970E+00	-8.066E-02
  14.600	 2.187E+02	 1.205E-03	-9.499E-04	 3.839E-04	-5.557E-04	-8.625E-03	 6.156E-03	-1.015E-01	-8.250E-02	 5.146E+00	 5.881E-01	 1.812E+03	 3.598E-02	 9.569E-02	-2.285E-02	-6.160E-02	-6.661E-01	-8.890E-01	 9.961E-02	 4.263E-01	-6.002E-02	 9.608E-02	 4.075E+00	 5.072E+00	 6.010E+00	-9.069E-02
  14.650	 2.379E+02	 9.050E-03	-6.673E-03	 1.611E-03	-1.974E-03	-2.505E-02	 2.617E-02	 8.266E-02	-1.906E-01	 5.233E+00	 5.973E-01	 1.812E+03	 3.482E-02	 9.322E-02	-1.746E-02	-2.569E-02	-1.826E-02	 1.554E-01	 2.325E-01	 7.650E-01	-2.977E-01	 3.934E-01	 5.538E+00	 3.450E+00	 5.894E+00	-7.031E-02
  14.700	 2.572E+02	 8.880E-03	-1.027E-02	 1.885E-03	-3.525E-03	-2.846E-02	 4.783E-02	 9.597E-02	-2.652E-01	 5.333E+00	 6.620E-01	 1.812E+03	 3.380E-02	 9.160E-02	-1.984E-02	-2.938E-02	 2.062E-01	 8.279E-01	 1.720E-01	 8.910E-01	-3.145E-01	 3.760E-01	 6.267E+00	 1.432E+00	 5.773E+00	-2.180E-02
  14.750	 2.764E+02	 2.096E-03	-8.185E-03	 2.691E-03	-5.641E-03	-4.065E-02	 7.771E-02	-6.844E-02	-2.200E-01	 5.332E+00	 6.182E-01	 1.812E+03	 3.299E-02	 9.138E-02	-1.441E-02	 1.516E-02	 2.444E-03	 8.830E-02	 1.154E-01	 9.561E-01	-4.023E-01	 8.816E-02	 6.450E+00	-7.645E-01	 5.725E+00	-4.819E-03
  14.800	 2.956E+02	-1.655E-03	-3.867E-03	 2.252E-03	-6.908E-03	-3.464E-02	 9.571E-02	-1.471E-01	-1.293E-01	 5.365E+00	 6.525E-01	 1.812E+03	 3.243E-02	 9.175E-02	-1.611E-03	 1.362E-02	 5.993E-01	 1.377E+00	 4.820E-02	 8.239E-01	-2.994E-01	-5.112E-02	 5.811E+00	-2.826E+00	 5.624E+00	 2.478E-02
  14.850	 3.149E+02	-2.288E-04	-3.106E-03	 1.269E-03	-8.090E-03	-1.994E-02	 1.118E-01	-8.580E-02	-1.339E-01	 5.329E+00	 5.743E-01	 1.812E+03	 3.271E-02	 9.344E-02	 5.574E-03	 1.945E-02	 1.925E-01	-1.021E+00	-3.093E-02	 5.967E-01	-1.641E-01	 2.474E-02	 4.650E+00	-4.695E+00	 5.756E+00	 3.355E-02
  14.900	 3.341E+02	-5.900E-04	-5.121E-03	-2.735E-05	-7.958E-03	-1.265E-03	 1.097E-01	-7.533E-02	-1.821E-01	 5.247E+00	 6.144E-01	 1.812E+03	 3.348E-02	 9.476E-02	 1.601E-02	 3.269E-02	-5.922E-01	-8.606E-01	-1.245E-01	 2.455E-01	 2.699E-02	 3.354E-02	 2.892E+00	-5.856E+00	 5.892E+00	 3.212E-02
  14.950	 3.534E+02	-5.211E-03	-6.090E-03	-1.705E-03	-7.563E-03	 2.227E-02	 1.039E-01	-1.664E-01	-2.120E-01	 5.237E+00	 6.130E-01	 1.812E+03	 3.402E-02	 9.603E-02	 1.817E-02	 4.276E-02	 4.188E-01	 9.041E-01	-2.631E-01	-2.002E-01	 3.038E-01	-1.327E-01	 7.447E-01	-6.478E+00	 5.975E+00	 1.152E-02
  15.000	 1.260E+01	-9.286E-03	-3.641E-03	-3.049E-03	-6.725E-03	 4.105E-02	 9.205E-02	-2.498E-01	-1.669E-01	 5.150E+00	 6.024E-01	 1.812E+03	 3.496E-02	 9.788E-02	 1.620E-02	 2.151E-02	 1.093E-02	-2.739E-01	-3.631E-01	-6.278E-01	 5.108E-01	-2.774E-01	-1.386E+00	-6.309E+00	 6.165E+00	 5.659E-03
  15.050	 3.184E+01	-8.064E-03	-1.025E-03	-5.297E-03	-5.189E-03	 7.292E-02	 7.043E-02	-2.160E-01	-1.168E-01	 5.162E+00	 6.186E-01	 1.812E+03	 3.575E-02	 9.905E-02	 1.309E-02	 2.911E-02	-1.914E-01	 1.109E-01	-3.981E-01	-1.102E+00	 8.325E-01	-2.069E-01	-3.471E+00	-5.477E+00	 6.187E+00	-4.867E-02
  15.100	 5.109E+01	-3.979E-03	-1.537E-03	-6.690E-03	-3.462E-03	 9.259E-02	 4.617E-02	-1.333E-01	-1.265E-01	 5.124E+00	 6.008E-01	 1.812E+03	 3.614E-02	 9.959E-02	 4.771E-03	-1.597E-02	 1.021E-01	-4.238E-01	-3.294E-01	-1.427E+00	 9.777E-01	-4.555E-02	-5.095E+00	-4.043E+00	 6.121E+00	-5.679E-02
  15.150	 7.033E+01	-2.602E-03	-5.539E-03	-7.914E-03	-9.110E-04	 1.095E-01	 9.492E-03	-1.198E-01	-2.354E-01	 5.139E+00	 6.557E-01	 1.812E+03	 3.645E-02	 9.920E-02	 3.001E-04	-1.557E-02	-5.102E-01	-1.850E+00	-2.858E-01	-1.693E+00	 1.133E+00	-1.054E-02	-6.240E+00	-2.118E+00	 6.140E+00	-1.045E-01
  15.200	 8.957E+01	-4.659E-03	-2.364E-03	-8.122E-03	-1.736E-04	 1.122E-01	 1.411E-04	-1.683E-01	-1.347E-01	 5.217E+00	 6.246E-01	 1.812E+03	 3.636E-02	 9.727E-02	-1.411E-03	-3.465E-02	-4.296E-01	 7.344E-02	-3.510E-01	-1.768E+00	 1.162E+00	-9.600E-02	-6.567E+00	-6.467E-02	 5.946E+00	-8.256E-02
  15.250	 1.088E+02	-6.537E-03	 6.317E-03	-7.632E-03	 1.165E-03	 1.049E-01	-1.845E-02	-2.189E-01	 4.203E-02	 5.274E+00	 5.798E-01	 1.812E+03	 3.552E-02	 9.480E-02	-2.178E-02	-4.888E-02	 3.802E-01	 1.238E+00	-3.660E-01	-1.684E+00	 1.102E+00	-1.727E-01	-6.143E+00	 2.137E+00	 5.891E+00	-8.162E-02
  15.300	 1.281E+02	-4.783E-03	 9.919E-03	-6.986E-03	 1.727E-03	 9.569E-02	-2.698E-02	-1.899E-01	 8.752E-02	 5.297E+00	 6.186E-01	 1.812E+03	 3.465E-02	 9.324E-02	-1.978E-02	-3.287E-02	-1.152E-01	-3.332E-01	-2.984E-01	-1.489E+00	 9.960E-01	-1.096E-01	-5.108E+00	 3.983E+00	 5.942E+00	-4.621E-02
  15.350	 1.473E+02	-1.647E-03	 5.451E-03	-5.550E-03	 2.371E-03	 7.553E-02	-3.602E-02	-1.284E-01	 1.609E-03	 5.283E+00	 6.162E-01	 1.812E+03	 3.371E-02	 9.191E-02	-1.650E-02	-8.212E-03	 7.710E-02	 1.099E+00	-1.960E-01	-1.129E+00	 7.635E-01	-6.232E-04	-3.440E+00	 5.445E+00	 5.777E+00	-3.428E-02
  15.400	 1.665E+02	-1.308E-03	-3.017E-04	-3.924E-03	 2.604E-03	 5.270E-02	-3.909E-02	-1.208E-01	-1.020E-01	 5.303E+00	 6.502E-01	 1.812E+03	 3.295E-02	 9.217E-02	-1.412E-02	-2.480E-03	 1.637E-01	-7.236E-01	-1.933E-01	-7.086E-01	 5.423E-01	 3.726E-03	-1.500E+00	 6.332E+00	 5.741E+00	 2.045E-02
  15.450	 1.858E+02	-4.788E-03	-1.213E-03	-1.434E-03	 1.695E-03	 1.763E-02	-2.631E-02	-1.907E-01	-1.199E-01	 5.330E+00	 6.513E-01	 1.812E+03	 3.274E-02	 9.269E-02	 4.507E-03	 3.668E-02	-6.424E-02	-1.495E-02	-2.302E-01	-1.985E-01	 2.062E-01	-1.389E-01	 7.384E-01	 6.488E+00	 5.676E+00	-7.544E-03
  15.500	 2.050E+02	-4.055E-03	 1.784E-04	-3.215E-04	 7.489E-04	 2.379E-03	-1.253E-02	-1.614E-01	-7.396E-02	 5.413E+00	 6.606E-01	 1.812E+03	 3.304E-02	 9.371E-02	 1.549E-02	 2.178E-02	 3.883E-01	 8.939E-01	-2.324E-01	 1.652E-01	 8.277E-02	-8.453E-02	 2.758E+00	 5.987E+00	 5.659E+00	 4.650E-02
  15.550	 2.243E+02	 3.854E-03	-2.714E-03	 8.223E-04	-1.034E-03	-1.416E-02	 1.278E-02	-2.589E-02	-1.205E-01	 5.254E+00	 6.447E-01	 1.812E+03	 3.358E-02	 9.477E-02	 4.659E-03	 1.539E-02	 2.588E-01	 6.551E-01	 9.124E-02	 5.392E-01	-1.456E-01	 2.059E-01	 4.533E+00	 4.646E+00	 5.892E+00	 2.331E-02
  15.600	 2.435E+02	 9.560E-03	-7.887E-03	 1.727E-03	-2.282E-03	-2.706E-02	 3.047E-02	 7.733E-02	-2.151E-01	 5.142E+00	 5.847E-01	 1.812E+03	 3.429E-02	 9.652E-02	 1.673E-02	 3.438E-02	-2.155E-01	-8.780E-01	 3.100E-01	 8.151E-01	-3.133E-01	 3.967E-01	 5.821E+00	 2.925E+00	 6.130E+00	 9.022E-03
  15.650	 2.627E+02	 7.139E-03	-9.361E-03	 2.145E-03	-4.243E-03	-3.247E-02	 5.808E-02	 4.879E-02	-2.414E-01	 5.178E+00	 6.321E-01	 1.812E+03	 3.506E-02	 9.773E-02	 1.649E-02	 2.639E-02	-1.036E-02	 3.453E-01	 1.814E-01	 9.263E-01	-3.456E-01	 2.978E-01	 6.392E+00	 7.910E-01	 6.126E+00	-1.513E-02
  15.700	 2.820E+02	 1.035E-03	-6.090E-03	 2.698E-03	-6.121E-03	-4.046E-02	 8.444E-02	-7.776E-02	-1.801E-01	 5.188E+00	 5.642E-01	 1.812E+03	 3.571E-02	 9.917E-02	 7.428E-03	 1.589E-02	-2.035E-01	-1.279E+00	 6.991E-02	 9.424E-01	-3.921E-01	 5.177E-02	 6.377E+00	-1.392E+00	 6.173E+00	-3.338E-02
  15.750	 3.012E+02	-9.186E-04	-2.592E-03	 1.899E-03	-7.338E-03	-2.948E-02	 1.016E-01	-1.258E-01	-1.088E-01	 5.176E+00	 6.346E-01	 1.812E+03	 3.611E-02	 9.912E-02	 1.173E-02	 5.511E-03	-1.991E-02	 7.016E-01	 5.795E-02	 7.560E-01	-2.507E-01	-2.054E-02	 5.510E+00	-3.453E+00	 5.989E+00	-9.190E-02
  15.800	 3.205E+02	 9.949E-04	-3.354E-03	 9.483E-04	-8.272E-03	-1.541E-02	 1.143E-01	-6.118E-02	-1.405E-01	 5.172E+00	 6.168E-01	 1.812E+03	 3.630E-02	 9.843E-02	 6.034E-04	-3.965E-02	 2.949E-01	 1.247E-01	 3.186E-03	 5.100E-01	-1.321E-01	 7.243E-02	 4.189E+00	-5.128E+00	 5.969E+00	-6.717E-02
  15.850	 3.397E+02	-1.124E-03	-5.975E-03	-6.548E-04	-7.797E-03	 7.481E-03	 1.073E-01	-8.848E-02	-2.045E-01	 5.185E+00	 6.559E-01	 1.812E+03	 3.615E-02	 9.657E-02	-1.781E-02	-5.146E-02	-5.645E-01	-6.731E-01	-1.314E-01	 1.025E-01	 1.250E-01	 1.326E-02	 2.240E+00	-6.104E+00	 6.059E+00	-8.791E-02
  15.900	 3.590E+02	-6.862E-03	-6.109E-03	-2.048E-03	-7.394E-03	 2.721E-02	 1.014E-01	-1.937E-01	-2.159E-01	 5.263E+00	 6.503E-01	 1.812E+03	 3.528E-02	 9.455E-02	-1.352E-02	-2.370E-02	-9.054E-02	-2.961E-02	-3.267E-01	-3.252E-01	 3.570E-01	-1.929E-01	 1.004E-01	-6.523E+00	 5.985E+00	-7.557E-02
  15.950	 1.820E+01	-1.015E-02	-2.971E-03	-3.653E-03	-6.290E-03	 4.971E-02	 8.596E-02	-2.605E-01	-1.532E-01	 5.280E+00	 6.277E-01	 1.812E+03	 3.443E-02	 9.305E-02	-1.783E-02	-3.000E-02	 7.551E-02	 4.281E-01	-4.253E-01	-7.705E-01	 6.092E-01	-2.994E-01	-2.013E+00	-6.106E+00	 5.865E+00	-3.559E-02
  16.000	 3.744E+01	-7.819E-03	-9.196E-04	-5.748E-03	-4.726E-03	 7.920E-02	 6.401E-02	-2.130E-01	-1.117E-01	 5.289E+00	 6.242E-01	 1.812E+03	 3.361E-02	 9.256E-02	-1.544E-02	 8.659E-03	-3.637E-02	-4.936E-02	-4.040E-01	-1.210E+00	 8.896E-01	-1.941E-01	-3.988E+00	-5.134E+00	 5.792E+00	-2.088E-02
  16.050	 5.668E+01	-3.660E-03	-2.261E-03	-6.981E-03	-2.779E-03	 9.670E-02	 3.729E-02	-1.268E-01	-1.124E-01	 5.365E+00	 5.709E-01	 1.812E+03	 3.294E-02	 9.239E-02	-4.915E-03	 2.112E-03	 5.814E-01	 1.559E+00	-3.488E-01	-1.499E+00	 1.013E+00	-3.183E-02	-5.422E+00	-3.515E+00	 5.637E+00	 5.103E-03
  16.100	 7.593E+01	-3.245E-03	-5.943E-03	-8.126E-03	-5.625E-04	 1.123E-01	 4.500E-03	-1.374E-01	-2.469E-01	 5.294E+00	 6.360E-01	 1.812E+03	 3.296E-02	 9.338E-02	 1.658E-04	 2.829E-03	 2.688E-01	-7.896E-01	-3.102E-01	-1.738E+00	 1.167E+00	-3.653E-02	-6.421E+00	-1.567E+00	 5.751E+00	 2.499E-02
  16.150	 9.517E+01	-5.395E-03	-5.855E-04	-7.919E-03	 1.251E-04	 1.092E-01	-4.824E-03	-1.878E-01	-1.299E-01	 5.263E+00	 6.441E-01	 1.812E+03	 3.346E-02	 9.413E-02	 8.492E-03	 2.176E-02	-6.306E-01	-9.315E-01	-3.608E-01	-1.749E+00	 1.131E+00	-1.253E-01	-6.500E+00	 5.499E-01	 5.874E+00	 2.325E-02
  16.200	 1.144E+02	-6.157E-03	 8.071E-03	-7.530E-03	 1.510E-03	 1.034E-01	-2.315E-02	-2.136E-01	 8.162E-02	 5.232E+00	 5.982E-01	 1.812E+03	 3.371E-02	 9.498E-02	 1.397E-02	 3.737E-02	 4.213E-01	 9.001E-01	-3.461E-01	-1.646E+00	 1.086E+00	-1.587E-01	-5.937E+00	 2.700E+00	 5.917E+00	 1.336E-02
  16.250	 1.337E+02	-3.474E-03	 9.299E-03	-6.651E-03	 1.804E-03	 9.101E-02	-2.752E-02	-1.640E-01	 9.690E-02	 5.187E+00	 6.137E-01	 1.812E+03	 3.445E-02	 9.662E-02	 1.296E-02	 1.984E-02	 4.976E-02	-1.704E-01	-2.533E-01	-1.398E+00	 9.367E-01	-6.320E-02	-4.687E+00	 4.433E+00	 6.087E+00	 1.671E-02
  16.300	 1.529E+02	-9.352E-04	 3.325E-03	-5.104E-03	 2.635E-03	 6.926E-02	-4.008E-02	-1.145E-01	-5.343E-02	 5.165E+00	 6.206E-01	 1.812E+03	 3.514E-02	 9.791E-02	 1.289E-02	 3.648E-02	-1.257E-01	 1.995E-01	-1.732E-01	-1.011E+00	 6.970E-01	 2.241E-02	-2.906E+00	 5.798E+00	 6.115E+00	-3.214E-02
  16.350	 1.721E+02	-1.728E-03	-7.213E-04	-3.340E-03	 2.380E-03	 4.450E-02	-3.629E-02	-1.283E-01	-1.238E-01	 5.091E+00	 6.204E-01	 1.812E+03	 3.557E-02	 9.877E-02	 7.543E-03	-7.599E-03	 2.235E-01	-2.926E-02	-2.126E-01	-5.549E-01	 4.792E-01	 1.351E-02	-8.382E-01	 6.438E+00	 6.068E+00	-3.931E-02
  16.400	 1.914E+02	-6.065E-03	 2.422E-04	-8.087E-04	 1.359E-03	 7.900E-03	-2.126E-02	-2.516E-01	-7.861E-02	 5.118E+00	 5.809E-01	 1.812E+03	 3.609E-02	 9.899E-02	 3.911E-03	-8.322E-03	-4.648E-01	-1.971E+00	-1.218E-01	-6.281E-02	 1.278E-01	-2.009E-01	 1.397E+00	 6.450E+00	 6.127E+00	-8.452E-02
  16.450	 2.106E+02	-2.264E-03	 4.624E-04	-1.085E-04	 2.485E-04	-1.037E-03	-5.297E-03	-1.431E-01	-6.086E-02	 5.239E+00	 5.966E-01	 1.812E+03	 3.627E-02	 9.766E-02	 3.284E-03	-2.403E-02	-5.874E-01	-4.522E-01	-9.660E-02	 2.659E-01	 4.140E-02	-2.546E-02	 3.326E+00	 5.656E+00	 6.005E+00	-7.371E-02
  16.500	 2.299E+02	 6.997E-03	-4.079E-03	 1.216E-03	-1.524E-03	-1.906E-02	 1.962E-02	 5.947E-02	-1.488E-01	 5.276E+00	 6.224E-01	 1.812E+03	 3.568E-02	 9.559E-02	-1.404E-02	-3.395E-02	 4.262E-01	 1.413E+00	 1.055E-01	 6.492E-01	-2.264E-01	 3.338E-01	 5.000E+00	 4.163E+00	 5.932E+00	-7.942E-02
  16.550	 2.491E+02	 1.018E-02	-9.196E-03	 1.726E-03	-2.714E-03	-2.679E-02	 3.640E-02	 9.932E-02	-2.457E-01	 5.207E+00	 6.062E-01	 1.812E+03	 3.507E-02	 9.438E-02	-1.718E-02	-3.436E-02	-1.240E-01	-3.008E-01	 2.889E-01	 8.482E-01	-3.079E-01	 4.196E-01	 6.044E+00	 2.320E+00	 5.999E+00	-5.131E-02
  16.600	 2.683E+02	 5.017E-03	-9.282E-03	 2.424E-03	-4.887E-03	-3.689E-02	 6.724E-02	-1.138E-02	-2.366E-01	 5.248E+00	 6.428E-01	 1.812E+03	 3.429E-02	 9.317E-02	-1.404E-02	-6.034E-03	-3.778E-02	 7.624E-01	 1.928E-01	 9.460E-01	-3.825E-01	 1.997E-01	 6.449E+00	 1.322E-01	 5.858E+00	-4.907E-02
  16.650	 2.876E+02	-5.910E-04	-5.456E-03	 2.581E-03	-6.422E-03	-3.887E-02	 8.879E-02	-1.116E-01	-1.631E-01	 5.310E+00	 6.008E-01	 1.812E+03	 3.351E-02	 9.307E-02	-1.528E-02	-1.224E-02	 2.269E-01	-4.371E-01	 3.001E-02	 9.034E-01	-3.584E-01	-9.134E-03	 6.193E+00	-1.991E+00	 5.768E+00	 5.091E-04
  16.700	 3.068E+02	-1.003E-03	-2.962E-03	 1.626E-03	-7.651E-03	-2.528E-02	 1.059E-01	-1.132E-01	-1.215E-01	 5.331E+00	 6.079E-01	 1.812E+03	 3.322E-02	 9.326E-02	-1.801E-04	 2.400E-02	-2.021E-01	-4.735E-01	-7.492E-03	 6.934E-01	-2.066E-01	-1.068E-02	 5.184E+00	-3.993E+00	 5.725E+00	-2.542E-02
  16.750	 3.261E+02	 4.167E-04	-4.213E-03	 6.643E-04	-8.198E-03	-1.123E-02	 1.133E-01	-6.512E-02	-1.566E-01	 5.295E+00	 6.260E-01	 1.812E+03	 3.328E-02	 9.357E-02	 1.058E-02	 1.154E-02	 2.869E-01	 9.573E-01	-5.577E-02	 4.169E-01	-8.796E-02	 6.086E-02	 3.705E+00	-5.444E+00	 5.656E+00	 3.229E-02
  16.800	 3.453E+02	-3.042E-03	-6.212E-03	-1.129E-03	-7.686E-03	 1.409E-02	 1.057E-01	-1.281E-01	-2.108E-01	 5.278E+00	 6.238E-01	 1.812E+03	 3.350E-02	 9.411E-02	-7.660E-04	 6.525E-03	 3.292E-01	 7.500E-01	-1.885E-01	-2.429E-02	 2.096E-01	-5.636E-02	 1.637E+00	-6.284E+00	 5.856E+00	 1.810E-02
  16.850	 4.556E+00	-8.398E-03	-5.092E-03	-2.334E-03	-7.186E-03	 3.115E-02	 9.848E-02	-2.269E-01	-1.967E-01	 5.236E+00	 6.094E-01	 1.812E+03	 3.394E-02	 9.545E-02	 1.192E-02	 2.932E-02	-1.154E-01	-5.704E-01	-3.555E-01	-4.369E-01	 4.030E-01	-2.493E-01	-4.917E-01	-6.486E+00	 6.061E+00	 1.449E-02
  16.900	 2.380E+01	-9.484E-03	-1.905E-03	-4.357E-03	-5.847E-03	 5.972E-02	 7.969E-02	-2.428E-01	-1.341E-01	 5.222E+00	 6.058E-01	 1.812E+03	 3.454E-02	 9.655E-02	 1.295E-02	 2.393E-02	-4.289E-03	 4.478E-01	-4.290E-01	-9.113E-01	 7.097E-01	-2.655E-01	-2.621E+00	-5.881E+00	 6.052E+00	-6.891E-03
  16.950	 4.304E+01	-5.843E-03	-9.441E-04	-6.185E-03	-4.254E-03	 8.538E-02	 5.734E-02	-1.737E-01	-1.134E-01	 5.114E+00	 6.191E-01	 1.812E+03	 3.512E-02	 9.815E-02	 8.534E-03	 2.112E-02	-1.568E-01	-1.398E+00	-3.507E-01	-1.307E+00	 9.289E-01	-1.182E-01	-4.475E+00	-4.748E+00	 6.114E+00	-1.446E-02
  17.000	 6.228E+01	-2.457E-03	-3.415E-03	-7.409E-03	-1.931E-03	 1.026E-01	 2.548E-02	-1.065E-01	-1.307E-01	 5.181E+00	 5.882E-01	 1.812E+03	 3.562E-02	 9.845E-02	 1.464E-02	 1.785E-02	-8.435E-03	 6.721E-01	-3.042E-01	-1.584E+00	 1.063E+00	 5.544E-03	-5.807E+00	-2.942E+00	 5.954E+00	-7.780E-02
  17.050	 8.152E+01	-3.491E-03	-4.587E-03	-8.269E-03	-4.048E-04	 1.143E-01	 3.247E-03	-1.440E-01	-1.834E-01	 5.206E+00	 6.129E-01	 1.812E+03	 3.602E-02	 9.822E-02	 7.037E-03	-2.664E-02	 3.282E-01	 4.988E-01	-3.155E-01	-1.768E+00	 1.186E+00	-4.976E-02	-6.544E+00	-9.563E-01	 5.945E+00	-5.324E-02
  17.100	 1.008E+02	-6.083E-03	 2.172E-03	-7.775E-03	 5.539E-04	 1.070E-01	-1.094E-02	-2.072E-01	-7.976E-02	 5.222E+00	 6.224E-01	 1.812E+03	 3.613E-02	 9.701E-02	-1.337E-02	-4.238E-02	-4.677E-01	-6.675E-01	-3.576E-01	-1.726E+00	 1.115E+00	-1.557E-01	-6.384E+00	 1.234E+00	 6.086E+00	-8.039E-02
  17.150	 1.200E+02	-5.871E-03	 9.268E-03	-7.365E-03	 1.680E-03	 1.010E-01	-2.620E-02	-2.112E-01	 7.961E-02	 5.233E+00	 6.167E-01	 1.812E+03	 3.556E-02	 9.556E-02	-8.245E-03	-1.490E-02	-2.083E-01	-3.978E-01	-3.263E-01	-1.595E+00	 1.059E+00	-1.498E-01	-5.645E+00	 3.274E+00	 6.058E+00	-7.534E-02
  17.200	 1.393E+02	-2.654E-03	 8.403E-03	-6.215E-03	 1.960E-03	 8.490E-02	-2.953E-02	-1.472E-01	 8.628E-02	 5.228E+00	 5.956E-01	 1.812E+03	 3.489E-02	 9.420E-02	-1.461E-02	-2.725E-02	 5.366E-02	 5.770E-01	-2.321E-01	-1.290E+00	 8.665E-01	-3.454E-02	-4.188E+00	 4.879E+00	 5.925E+00	-4.639E-02
  17.250	 1.585E+02	-8.934E-04	 1.810E-03	-4.639E-03	 2.699E-03	 6.278E-02	-4.064E-02	-1.114E-01	-6.974E-02	 5.266E+00	 6.335E-01	 1.812E+03	 3.416E-02	 9.377E-02	-1.594E-02	 2.450E-03	-1.009E-01	-4.179E-01	-1.918E-01	-8.905E-01	 6.348E-01	 2.280E-02	-2.346E+00	 6.071E+00	 5.865E+00	-3.031E-02
  17.300	 1.777E+02	-2.508E-03	-1.395E-03	-2.623E-03	 2.123E-03	 3.518E-02	-3.283E-02	-1.139E-01	-1.427E-01	 5.469E+00	 6.620E-01	 1.812E+03	 3.345E-02	 9.322E-02	-5.821E-03	-2.126E-03	 5.189E-01	 1.630E+00	-2.741E-01	-4.261E-01	 3.698E-01	-5.072E-02	-2.060E-01	 6.464E+00	 5.661E+00	-1.330E-02
  17.350	 1.970E+02	-6.104E-03	 7.926E-05	-5.003E-04	 1.163E-03	 3.889E-03	-1.844E-02	-2.398E-01	-7.919E-02	 5.299E+00	 6.313E-01	 1.812E+03	 3.329E-02	 9.368E-02	-3.645E-03	-9.244E-03	 3.539E-01	-4.345E-01	-1.714E-01	 3.800E-02	 1.001E-01	-1.877E-01	 1.966E+00	 6.314E+00	 5.735E+00	 1.528E-02
  17.400	 2.162E+02	-2.959E-04	-1.011E-03	 2.065E-04	-2.367E-04	-6.073E-03	 1.710E-03	-1.284E-01	-8.218E-02	 5.216E+00	 6.267E-01	 1.812E+03	 3.351E-02	 9.381E-02	 3.538E-04	 3.255E-03	-5.869E-01	-8.983E-01	 4.429E-02	 3.708E-01	-2.181E-02	 4.022E-02	 3.824E+00	 5.276E+00	 5.867E+00	 1.579E-02
  17.450	 2.355E+02	 8.604E-03	-6.005E-03	 1.520E-03	-1.818E-03	-2.348E-02	 2.392E-02	 8.512E-02	-1.795E-01	 5.274E+00	 6.249E-01	 1.812E+03	 3.352E-02	 9.420E-02	 1.001E-02	 3.232E-02	 2.861E-01	 5.727E-01	 1.774E-01	 7.338E-01	-2.826E-01	 3.856E-01	 5.375E+00	 3.695E+00	 5.901E+00	 1.261E-02
  17.500	 2.547E+02	 9.402E-03	-9.678E-03	 1.826E-03	-3.256E-03	-2.773E-02	 4.399E-02	 1.024E-01	-2.563E-01	 5.258E+00	 6.399E-01	 1.812E+03	 3.400E-02	 9.542E-02	 9.805E-03	 1.703E-02	 1.804E-01	 2.736E-01	 2.020E-01	 8.797E-01	-3.100E-01	 3.951E-01	 6.210E+00	 1.723E+00	 6.000E+00	 2.227E-02
  17.550	 2.739E+02	 2.885E-03	-7.941E-03	 2.657E-03	-5.470E-03	-4.027E-02	 7.532E-02	-5.713E-02	-2.147E-01	 5.192E+00	 6.038E-01	 1.812E+03	 3.462E-02	 9.683E-02	 1.150E-02	 3.711E-02	-1.390E-01	-3.932E-02	 1.583E-01	 9.601E-01	-4.038E-01	 1.151E-01	 6.474E+00	-4.958E-01	 6.048E+00	-1.915E-02
  17.600	 2.932E+02	-1.188E-03	-3.726E-03	 2.358E-03	-6.807E-03	-3.607E-02	 9.426E-02	-1.360E-01	-1.273E-01	 5.203E+00	 6.146E-01	 1.812E+03	 3.507E-02	 9.781E-02	 1.077E-02	 3.535E-03	 2.741E-01	 2.629E-01	 6.652E-02	 8.511E-01	-3.193E-01	-3.461E-02	 5.942E+00	-2.599E+00	 6.010E+00	-2.952E-02
  17.650	 3.124E+02	 1.912E-04	-2.703E-03	 1.322E-03	-8.014E-03	-2.079E-02	 1.108E-01	-8.170E-02	-1.245E-01	 5.190E+00	 5.758E-01	 1.812E+03	 3.572E-02	 9.847E-02	 7.064E-03	-2.609E-03	-2.977E-01	-1.716E+00	 4.042E-03	 6.240E-01	-1.734E-01	 3.886E-02	 4.813E+00	-4.519E+00	 6.091E+00	-6.788E-02
  17.700	 3.317E+02	 4.937E-04	-4.814E-03	 1.452E-04	-8.061E-03	-3.786E-03	 1.112E-01	-5.786E-02	-1.739E-01	 5.160E+00	 6.424E-01	 1.812E+03	 3.615E-02	 9.769E-02	 6.647E-03	-1.382E-02	-6.567E-01	-5.658E-01	-7.291E-02	 2.943E-01	-9.715E-03	 6.911E-02	 3.127E+00	-5.760E+00	 6.027E+00	-6.774E-02
  17.750	 3.509E+02	-4.242E-03	-6.316E-03	-1.601E-03	-7.607E-03	 2.078E-02	 1.045E-01	-1.492E-01	-2.155E-01	 5.221E+00	 6.528E-01	 1.812E+03	 3.580E-02	 9.623E-02	-8.508E-03	-2.295E-02	 3.342E-01	 1.082E+00	-2.291E-01	-1.563E-01	 2.837E-01	-9.907E-02	 9.896E-01	-6.440E+00	 5.981E+00	-7.841E-02
  17.800	 1.015E+01	-9.360E-03	-4.291E-03	-2.806E-03	-6.868E-03	 3.767E-02	 9.406E-02	-2.499E-01	-1.796E-01	 5.214E+00	 6.363E-01	 1.812E+03	 3.539E-02	 9.537E-02	-1.256E-02	-2.657E-02	-1.160E-01	-3.166E-01	-3.706E-01	-5.718E-01	 4.755E-01	-2.828E-01	-1.130E+00	-6.371E+00	 6.049E+00	-5.397E-02
  17.850	 2.940E+01	-9.117E-03	-1.432E-03	-5.010E-03	-5.377E-03	 6.892E-02	 7.308E-02	-2.350E-01	-1.246E-01	 5.299E+00	 6.300E-01	 1.812E+03	 3.475E-02	 9.429E-02	-1.330E-02	-6.415E-03	-5.019E-02	 8.153E-01	-4.368E-01	-1.048E+00	 8.011E-01	-2.465E-01	-3.221E+00	-5.597E+00	 5.915E+00	-5.929E-02
  17.900	 4.864E+01	-5.079E-03	-1.529E-03	-6.496E-03	-3.706E-03	 8.984E-02	 4.959E-02	-1.555E-01	-1.269E-01	 5.234E+00	 6.056E-01	 1.812E+03	 3.399E-02	 9.406E-02	-1.565E-02	-2.009E-02	 1.865E-01	-4.991E-01	-3.591E-01	-1.389E+00	 9.607E-01	-8.608E-02	-4.907E+00	-4.272E+00	 5.813E+00	-1.384E-02
  17.950	 6.788E+01	-2.829E-03	-5.162E-03	-7.730E-03	-1.187E-03	 1.070E-01	 1.373E-02	-1.193E-01	-2.144E-01	 5.268E+00	 6.324E-01	 1.812E+03	 3.362E-02	 9.391E-02	-3.864E-03	 1.226E-02	-2.691E-01	-9.534E-01	-3.111E-01	-1.658E+00	 1.109E+00	-1.422E-02	-6.107E+00	-2.386E+00	 5.793E+00	-3.376E-02
  18.000	 8.712E+01	-4.400E-03	-3.141E-03	-8.170E-03	-2.731E-04	 1.129E-01	 1.686E-03	-1.606E-01	-1.442E-01	 5.308E+00	 6.092E-01	 1.812E+03	 3.351E-02	 9.363E-02	 6.918E-03	 6.054E-03	 1.549E-01	 9.254E-01	-3.567E-01	-1.768E+00	 1.171E+00	-8.369E-02	-6.565E+00	-3.664E-01	 5.677E+00	 1.984E-02
  18.050	 1.064E+02	-6.400E-03	 4.949E-03	-7.668E-03	 9.890E-04	 1.054E-01	-1.621E-02	-2.152E-01	 6.419E-03	 5.295E+00	 5.891E-01	 1.812E+03	 3.345E-02	 9.362E-02	-5.315E-03	-3.866E-03	 4.743E-01	 1.195E+00	-3.664E-01	-1.697E+00	 1.104E+00	-1.675E-01	-6.227E+00	 1.842E+00	 5.808E+00	 1.313E-02
  18.100	 1.256E+02	-4.981E-03	 9.471E-03	-7.127E-03	 1.738E-03	 9.766E-02	-2.723E-02	-1.943E-01	 7.501E-02	 5.249E+00	 6.395E-01	 1.812E+03	 3.372E-02	 9.470E-02	 7.403E-03	 2.075E-02	-1.714E-01	-8.460E-01	-2.998E-01	-1.527E+00	 1.018E+00	-1.171E-01	-5.301E+00	 3.762E+00	 6.025E+00	 1.828E-02
  18.150	 1.448E+02	-1.731E-03	 6.201E-03	-5.769E-03	 2.271E-03	 7.859E-02	-3.442E-02	-1.305E-01	 2.362E-02	 5.192E+00	 6.155E-01	 1.812E+03	 3.413E-02	 9.552E-02	 1.124E-02	 2.719E-02	 6.326E-02	 7.222E-01	-1.923E-01	-1.180E+00	 7.948E-01	-3.472E-03	-3.685E+00	 5.282E+00	 5.986E+00	-1.746E-03
  18.200	 1.641E+02	-1.011E-03	 4.734E-04	-4.154E-03	 2.652E-03	 5.593E-02	-3.973E-02	-1.151E-01	-8.601E-02	 5.185E+00	 6.338E-01	 1.812E+03	 3.463E-02	 9.717E-02	 7.397E-03	 1.843E-02	-5.454E-02	-1.222E+00	-1.865E-01	-7.644E-01	 5.712E-01	 1.574E-02	-1.764E+00	 6.277E+00	 6.045E+00	-1.668E-03
  18.250	 1.833E+02	-3.993E-03	-8.544E-04	-1.760E-03	 1.801E-03	 2.285E-02	-2.798E-02	-1.507E-01	-1.192E-01	 5.292E+00	 6.247E-01	 1.812E+03	 3.522E-02	 9.779E-02	 1.693E-02	 2.823E-02	-1.075E-01	 3.261E-01	-2.934E-01	-2.581E-01	 2.524E-01	-9.624E-02	 4.746E-01	 6.502E+00	 5.932E+00	-6.830E-02
  18.300	 2.026E+02	-4.811E-03	 7.474E-04	-3.551E-04	 8.559E-04	 2.663E-03	-1.412E-02	-1.832E-01	-6.650E-02	 5.307E+00	 6.128E-01	 1.812E+03	 3.574E-02	 9.789E-02	 1.150E-02	-1.632E-02	 3.345E-01	 6.233E-01	-2.298E-01	 1.315E-01	 8.884E-02	-1.168E-01	 2.546E+00	 6.101E+00	 5.909E+00	-4.195E-02
  18.350	 2.218E+02	 2.734E-03	-1.779E-03	 6.294E-04	-8.534E-04	-1.186E-02	 1.027E-02	-6.373E-02	-1.013E-01	 5.141E+00	 5.971E-01	 1.812E+03	 3.599E-02	 9.704E-02	-9.874E-03	-3.490E-02	-3.031E-01	-2.945E-01	 1.180E-01	 4.926E-01	-1.081E-01	 1.584E-01	 4.350E+00	 4.830E+00	 6.075E+00	-7.270E-02
  18.400	 2.411E+02	 9.789E-03	-7.204E-03	 1.676E-03	-2.166E-03	-2.623E-02	 2.890E-02	 8.629E-02	-1.996E-01	 5.137E+00	 5.726E-01	 1.812E+03	 3.566E-02	 9.610E-02	-4.835E-03	-1.009E-02	-2.767E-01	-6.660E-01	 2.979E-01	 7.976E-01	-3.102E-01	 4.117E-01	 5.714E+00	 3.149E+00	 6.108E+00	-7.247E-02
  18.450	 2.603E+02	 8.245E-03	-9.732E-03	 2.001E-03	-3.946E-03	-3.017E-02	 5.387E-02	 8.074E-02	-2.508E-01	 5.248E+00	 6.446E-01	 1.812E+03	 3.518E-02	 9.502E-02	-1.063E-02	-1.970E-02	-3.524E-03	 5.189E-01	 1.704E-01	 9.103E-01	-3.292E-01	 3.461E-01	 6.345E+00	 1.061E+00	 5.972E+00	-5.457E-02
  18.500	 2.795E+02	 1.324E-03	-7.157E-03	 2.722E-03	-5.914E-03	-4.091E-02	 8.151E-02	-7.665E-02	-2.013E-01	 5.273E+00	 5.914E-01	 1.812E+03	 3.457E-02	 9.472E-02	-1.489E-02	-1.335E-03	-1.261E-01	-6.283E-01	 8.051E-02	 9.510E-01	-3.994E-01	 6.143E-02	 6.418E+00	-1.121E+00	 5.916E+00	-3.763E-02
  18.550	 2.988E+02	-1.539E-03	-3.379E-03	 2.067E-03	-7.135E-03	-3.198E-02	 9.885E-02	-1.430E-01	-1.220E-01	 5.290E+00	 6.578E-01	 1.812E+03	 3.391E-02	 9.400E-02	-5.566E-03	-3.449E-03	 4.089E-01	 1.538E+00	 4.918E-02	 7.861E-01	-2.711E-01	-4.492E-02	 5.645E+00	-3.173E+00	 5.688E+00	-3.302E-02
  18.600	 3.180E+02	 3.210E-04	-3.456E-03	 1.103E-03	-8.191E-03	-1.761E-02	 1.132E-01	-7.494E-02	-1.419E-01	 5.303E+00	 5.985E-01	 1.812E+03	 3.365E-02	 9.403E-02	-5.692E-03	-1.997E-02	 4.127E-01	-1.629E-01	-1.880E-02	 5.503E-01	-1.474E-01	 4.609E-02	 4.398E+00	-4.936E+00	 5.751E+00	 6.344E-03
  18.650	 3.373E+02	-9.011E-04	-5.685E-03	-3.689E-04	-7.853E-03	 3.549E-03	 1.082E-01	-8.084E-02	-1.963E-01	 5.263E+00	 6.259E-01	 1.812E+03	 3.371E-02	 9.382E-02	-4.632E-03	-3.796E-03	-6.028E-01	-9.620E-01	-1.386E-01	 1.678E-01	 8.122E-02	 2.255E-02	 2.536E+00	-5.996E+00	 5.881E+00	 3.949E-03
  18.700	 3.565E+02	-6.314E-03	-6.074E-03	-1.870E-03	-7.481E-03	 2.470E-02	 1.027E-01	-1.841E-01	-2.133E-01	 5.293E+00	 6.187E-01	 1.812E+03	 3.351E-02	 9.383E-02	 5.800E-03	 2.399E-02	 2.678E-01	 6.089E-01	-3.104E-01	-2.670E-01	 3.310E-01	-1.722E-01	 3.961E-01	-6.512E+00	 5.881E+00	 7.279E-03
  18.750	 1.575E+01	-1.007E-02	-3.208E-03	-3.354E-03	-6.484E-03	 4.538E-02	 8.867E-02	-2.632E-01	-1.580E-01	 5.228E+00	 6.005E-01	 1.812E+03	 3.381E-02	 9.477E-02	 6.554E-03	 1.225E-02	 1.432E-01	 1.681E-01	-4.008E-01	-7.047E-01	 5.633E-01	-3.015E-01	-1.729E+00	-6.203E+00	 5.964E+00	 2.285E-02
  18.800	 3.499E+01	-7.946E-03	-9.275E-04	-5.555E-03	-4.939E-03	 7.652E-02	 6.697E-02	-2.149E-01	-1.132E-01	 5.222E+00	 6.107E-01	 1.812E+03	 3.425E-02	 9.601E-02	 9.431E-03	 3.892E-02	-5.089E-02	 7.069E-02	-3.999E-01	-1.163E+00	 8.659E-01	-1.999E-01	-3.763E+00	-5.295E+00	 5.994E+00	-9.686E-03
  18.850	 5.424E+01	-3.454E-03	-1.868E-03	-6.873E-03	-3.102E-03	 9.518E-02	 4.134E-02	-1.223E-01	-1.239E-01	 5.238E+00	 5.826E-01	 1.812E+03	 3.466E-02	 9.700E-02	 1.071E-02	 5.011E-03	 3.255E-01	 5.568E-01	-3.314E-01	-1.469E+00	 9.977E-01	-2.421E-02	-5.287E+00	-3.744E+00	 5.954E+00	-2.149E-02
  18.900	 7.348E+01	-2.629E-03	-5.980E-03	-8.069E-03	-6.838E-04	 1.115E-01	 6.162E-03	-1.242E-01	-2.493E-01	 5.167E+00	 6.495E-01	 1.812E+03	 3.535E-02	 9.793E-02	 8.615E-03	 1.349E-04	-1.895E-01	-1.643E+00	-2.838E-01	-1.723E+00	 1.154E+00	-1.357E-02	-6.357E+00	-1.806E+00	 6.050E+00	-4.977E-02
  18.950	 9.272E+01	-5.000E-03	-1.447E-03	-8.017E-03	-3.702E-06	 1.106E-01	-2.806E-03	-1.779E-01	-1.387E-01	 5.194E+00	 6.398E-01	 1.812E+03	 3.591E-02	 9.752E-02	 8.014E-03	-8.034E-03	-7.375E-01	-8.955E-01	-3.506E-01	-1.760E+00	 1.145E+00	-1.108E-01	-6.539E+00	 2.898E-01	 6.047E+00	-5.842E-02
  19.000	 1.120E+02	-6.448E-03	 7.636E-03	-7.575E-03	 1.356E-03	 1.041E-01	-2.100E-02	-2.187E-01	 7.285E-02	 5.220E+00	 5.811E-01	 1.812E+03	 3.572E-02	 9.644E-02	-2.428E-03	-8.732E-03	 3.336E-01	 1.060E+00	-3.546E-01	-1.664E+00	 1.094E+00	-1.702E-01	-6.030E+00	 2.470E+00	 5.998E+00	-7.181E-02
  19.050	 1.312E+02	-4.098E-03	 9.922E-03	-6.812E-03	 1.759E-03	 9.325E-02	-2.704E-02	-1.762E-01	 1.025E-01	 5.227E+00	 6.033E-01	 1.812E+03	 3.552E-02	 9.590E-02	-9.785E-03	-2.487E-02	-5.996E-02	-1.401E-01	-2.737E-01	-1.439E+00	 9.657E-01	-8.546E-02	-4.870E+00	 4.250E+00	 6.067E+00	-5.128E-02
  19.100	 1.504E+02	-1.147E-03	 4.260E-03	-5.294E-03	 2.519E-03	 7.193E-02	-3.836E-02	-1.187E-01	-3.173E-02	 5.224E+00	 6.122E-01	 1.812E+03	 3.505E-02	 9.515E-02	-1.039E-02	-1.063E-03	-1.522E-01	 4.477E-01	-1.797E-01	-1.062E+00	 7.240E-01	 1.591E-02	-3.136E+00	 5.656E+00	 5.974E+00	-6.438E-02
  19.150	 1.697E+02	-1.517E-03	-6.546E-04	-3.607E-03	 2.492E-03	 4.820E-02	-3.774E-02	-1.261E-01	-1.172E-01	 5.206E+00	 6.286E-01	 1.812E+03	 3.436E-02	 9.481E-02	-1.391E-02	-2.145E-02	 2.712E-01	-1.105E-01	-2.662E-01	-6.192E-01	 5.029E-01	 1.043E-03	-1.122E+00	 6.402E+00	 5.840E+00	-2.485E-02
  19.200	 1.889E+02	-5.711E-03	-4.905E-04	-1.035E-03	 1.503E-03	 1.145E-02	-2.341E-02	-2.304E-01	-9.754E-02	 5.232E+00	 6.182E-01	 1.812E+03	 3.403E-02	 9.464E-02	-6.057E-03	 4.157E-03	-3.420E-01	-1.276E+00	-1.716E-01	-1.174E-01	 1.556E-01	-1.805E-01	 1.112E+00	 6.475E+00	 5.844E+00	-4.519E-02
  19.250	 2.082E+02	-3.208E-03	 2.920E-04	-2.224E-04	 4.989E-04	 9.219E-04	-8.855E-03	-1.474E-01	-6.564E-02	 5.375E+00	 6.451E-01	 1.812E+03	 3.385E-02	 9.401E-02	 4.253E-03	-1.629E-03	-3.537E-02	 5.609E-01	-1.889E-01	 2.190E-01	 6.657E-02	-5.184E-02	 3.070E+00	 5.813E+00	 5.714E+00	 7.402E-03
  19.300	 2.274E+02	 5.639E-03	-3.713E-03	 1.053E-03	-1.300E-03	-1.701E-02	 1.648E-02	 2.349E-02	-1.416E-01	 5.312E+00	 6.509E-01	 1.812E+03	 3.357E-02	 9.352E-02	-7.942E-03	-7.827E-03	 5.238E-01	 1.333E+00	 9.138E-02	 6.017E-01	-1.930E-01	 2.796E-01	 4.792E+00	 4.383E+00	 5.803E+00	 5.542E-03
  19.350	 2.467E+02	 9.886E-03	-8.899E-03	 1.733E-03	-2.482E-03	-2.711E-02	 3.318E-02	 8.507E-02	-2.382E-01	 5.199E+00	 6.050E-01	 1.812E+03	 3.365E-02	 9.423E-02	 3.195E-03	 1.294E-02	-7.066E-02	-5.349E-01	 3.092E-01	 8.333E-01	-3.115E-01	 4.072E-01	 5.946E+00	 2.598E+00	 5.993E+00	 1.775E-02
  19.400	 2.659E+02	 5.833E-03	-9.372E-03	 2.313E-03	-4.603E-03	-3.506E-02	 6.322E-02	 1.428E-02	-2.390E-01	 5.242E+00	 6.453E-01	 1.812E+03	 3.390E-02	 9.486E-02	 7.727E-03	 2.326E-02	 5.833E-02	 7.633E-01	 1.852E-01	 9.357E-01	-3.681E-01	 2.371E-01	 6.425E+00	 4.276E-01	 5.945E+00	-1.254E-03
  19.450	 2.851E+02	-3.965E-05	-5.567E-03	 2.657E-03	-6.297E-03	-3.985E-02	 8.698E-02	-9.729E-02	-1.673E-01	 5.260E+00	 5.717E-01	 1.812E+03	 3.428E-02	 9.641E-02	 6.124E-03	 1.709E-02	-1.838E-02	-1.243E+00	 4.335E-02	 9.229E-01	-3.752E-01	 1.297E-02	 6.288E+00	-1.723E+00	 5.998E+00	 7.207E-03
  19.500	 3.044E+02	-9.709E-04	-2.550E-03	 1.745E-03	-7.531E-03	-2.713E-02	 1.043E-01	-1.192E-01	-1.104E-01	 5.238E+00	 6.195E-01	 1.812E+03	 3.485E-02	 9.712E-02	 1.706E-02	 3.263E-02	-1.259E-01	 1.309E-01	 2.783E-02	 7.214E-01	-2.254E-01	-1.466E-02	 5.331E+00	-3.763E+00	 5.906E+00	-5.852E-02
  19.550	 3.236E+02	 8.405E-04	-3.716E-03	 7.915E-04	-8.260E-03	-1.316E-02	 1.142E-01	-6.230E-02	-1.477E-01	 5.200E+00	 6.290E-01	 1.812E+03	 3.544E-02	 9.739E-02	 1.437E-02	-8.323E-03	 3.104E-01	 8.396E-01	-1.297E-02	 4.583E-01	-1.105E-01	 7.065E-02	 3.918E+00	-5.315E+00	 5.880E+00	-3.130E-02
  19.600	 3.429E+02	-1.927E-03	-6.082E-03	-9.594E-04	-7.738E-03	 1.174E-02	 1.064E-01	-1.051E-01	-2.080E-01	 5.185E+00	 6.439E-01	 1.812E+03	 3.580E-02	 9.700E-02	-6.637E-03	-2.547E-02	-1.884E-01	-2.558E-01	-1.527E-01	 2.843E-02	 1.767E-01	-1.581E-02	 1.891E+00	-6.219E+00	 6.070E+00	-6.349E-02
  19.650	 2.109E+00	-7.519E-03	-5.474E-03	-2.220E-03	-7.293E-03	 2.962E-02	 9.999E-02	-2.067E-01	-2.038E-01	 5.207E+00	 6.421E-01	 1.812E+03	 3.568E-02	 9.647E-02	-1.393E-03	-3.518E-03	-2.903E-01	-6.513E-01	-3.408E-01	-3.881E-01	 3.827E-01	-2.164E-01	-2.423E-01	-6.516E+00	 6.128E+00	-6.701E-02
  19.700	 2.135E+01	-9.776E-03	-2.351E-03	-4.071E-03	-6.037E-03	 5.563E-02	 8.237E-02	-2.513E-01	-1.419E-01	 5.224E+00	 6.295E-01	 1.812E+03	 3.536E-02	 9.568E-02	-8.044E-03	-1.620E-02	-5.335E-02	 4.461E-01	-4.263E-01	-8.514E-01	 6.694E-01	-2.811E-01	-2.367E+00	-5.983E+00	 6.010E+00	-5.674E-02
  19.750	 4.059E+01	-6.825E-03	-9.800E-04	-5.997E-03	-4.462E-03	 8.270E-02	 6.027E-02	-1.944E-01	-1.139E-01	 5.184E+00	 6.300E-01	 1.812E+03	 3.486E-02	 9.555E-02	-1.304E-02	-8.885E-04	-1.506E-01	-9.016E-01	-3.738E-01	-1.266E+00	 9.128E-01	-1.566E-01	-4.272E+00	-4.923E+00	 5.967E+00	-3.891E-02
  19.800	 5.983E+01	-3.071E-03	-2.919E-03	-7.218E-03	-2.303E-03	 1.000E-01	 3.077E-02	-1.161E-01	-1.187E-01	 5.283E+00	 5.753E-01	 1.812E+03	 3.427E-02	 9.476E-02	-4.663E-03	-2.579E-03	 3.184E-01	 1.516E+00	-3.323E-01	-1.547E+00	 1.043E+00	-1.041E-02	-5.644E+00	-3.191E+00	 5.721E+00	-4.854E-02
  19.850	 7.908E+01	-3.495E-03	-5.582E-03	-8.217E-03	-4.464E-04	 1.136E-01	 3.483E-03	-1.431E-01	-2.161E-01	 5.286E+00	 6.198E-01	 1.812E+03	 3.397E-02	 9.453E-02	-5.697E-03	-2.391E-02	 4.718E-01	 1.975E-01	-3.205E-01	-1.757E+00	 1.180E+00	-4.763E-02	-6.499E+00	-1.229E+00	 5.747E+00	-9.372E-04
  19.900	 9.832E+01	-5.900E-03	 7.757E-04	-7.823E-03	 3.565E-04	 1.077E-01	-8.228E-03	-2.016E-01	-1.095E-01	 5.269E+00	 6.369E-01	 1.812E+03	 3.390E-02	 9.396E-02	-9.843E-03	-1.847E-02	-5.118E-01	-7.947E-01	-3.665E-01	-1.735E+00	 1.121E+00	-1.448E-01	-6.437E+00	 9.259E-01	 5.892E+00	-3.859E-03
  19.950	 1.176E+02	-6.077E-03	 8.965E-03	-7.440E-03	 1.603E-03	 1.021E-01	-2.487E-02	-2.137E-01	 8.327E-02	 5.267E+00	 6.216E-01	 1.812E+03	 3.359E-02	 9.373E-02	 3.254E-03	 2.031E-02	 1.115E-01	 1.096E-01	-3.403E-01	-1.620E+00	 1.072E+00	-1.561E-01	-5.784E+00	 3.018E+00	 5.909E+00	 2.706E-03
  20.000	 1.368E+02	-3.048E-03	 8.927E-03	-6.411E-03	 1.882E-03	 8.766E-02	-2.844E-02	-1.547E-01	 9.614E-02	 5.233E+00	 6.102E-01	 1.812E+03	 3.369E-02	 9.421E-02	 3.803E-03	 7.790E-03	 2.446E-01	 5.931E-01	-2.463E-01	-1.339E+00	 8.983E-01	-4.773E-02	-4.415E+00	 4.679E+00	 5.917E+00	 2.086E-02
