
These predictions were generated by FAST (v7.01.00a-bjj, 16-Feb-2012) on 22-Feb-2012 at 09:17:32.
The aerodynamic calculations were made by AeroDyn (v13.00.01a-bjj, 16-Feb-2012).

 FAST certification Test #03: AWT-27CR2 with many DOFs with free yaw and steady wind.

Time	Azimuth	TeetDefl	RotTeetV	RotTeetA	OoPDefl2	IPDefl2	RootMOoP2	RootMIP2	RotTorq	YawBrTDxp	YawBrTDyp	YawBrTAxp	YawBrTAyp	NacYaw	NacYawV	NacYawA	LSSGagMys	LSSGagMzs	TwrBsMxt	TwrBsMyt
(s)	(deg)	(deg)	(deg/s)	(deg/s^2)	(m)	(m)	(kN·m)	(kN·m)	(kN·m)	(m)	(m)	(m/s^2)	(m/s^2)	(deg)	(deg/s)	(deg/s^2)	(kN·m)	(kN·m)	(kN·m)	(kN·m)
  10.000	 1.622E+01	 4.355E-01	 4.320E+00	-3.271E+01	 1.698E-01	-2.176E-02	 3.795E+01	 8.355E+00	 3.508E+01	 4.471E-02	-2.296E-02	 9.436E-02	 2.777E-03	-2.484E+01	-1.759E-01	-1.009E+01	 8.140E+00	-1.757E+00	 5.837E+02	 1.155E+03
  10.020	 2.273E+01	 5.173E-01	 3.940E+00	-1.012E+01	 1.629E-01	-2.213E-02	 3.930E+01	 8.776E+00	 3.632E+01	 4.424E-02	-2.288E-02	 1.447E-01	-2.254E-02	-2.485E+01	-3.266E-01	-5.643E+00	 8.228E+00	-1.852E+00	 5.810E+02	 1.137E+03
  10.040	 2.925E+01	 5.939E-01	 3.709E+00	-1.505E+01	 1.600E-01	-2.175E-02	 3.914E+01	 7.523E+00	 3.777E+01	 4.382E-02	-2.280E-02	 1.183E-01	 7.735E-03	-2.485E+01	-4.369E-01	-6.249E+00	 8.718E+00	-2.226E+00	 5.739E+02	 1.117E+03
  10.060	 3.576E+01	 6.649E-01	 3.395E+00	-1.350E+01	 1.611E-01	-2.034E-02	 3.799E+01	 4.597E+00	 3.838E+01	 4.345E-02	-2.271E-02	 7.273E-02	 6.623E-02	-2.486E+01	-5.994E-01	-1.020E+01	 9.498E+00	-2.764E+00	 5.657E+02	 1.102E+03
  10.080	 4.228E+01	 7.308E-01	 3.218E+00	-5.073E+00	 1.645E-01	-1.855E-02	 3.734E+01	 1.107E+00	 3.794E+01	 4.311E-02	-2.260E-02	 8.003E-02	 9.282E-02	-2.488E+01	-8.377E-01	-1.310E+01	 1.054E+01	-3.098E+00	 5.606E+02	 1.095E+03
  10.100	 4.879E+01	 7.941E-01	 3.109E+00	-7.975E+00	 1.681E-01	-1.729E-02	 3.813E+01	-1.673E+00	 3.714E+01	 4.280E-02	-2.246E-02	 1.513E-01	 6.039E-02	-2.490E+01	-1.096E+00	-1.196E+01	 1.157E+01	-3.059E+00	 5.596E+02	 1.094E+03
  10.120	 5.531E+01	 8.541E-01	 2.855E+00	-1.763E+01	 1.713E-01	-1.701E-02	 3.981E+01	-2.947E+00	 3.684E+01	 4.256E-02	-2.229E-02	 2.295E-01	-5.599E-03	-2.492E+01	-1.292E+00	-7.267E+00	 1.227E+01	-2.725E+00	 5.599E+02	 1.093E+03
  10.140	 6.183E+01	 9.070E-01	 2.411E+00	-2.642E+01	 1.744E-01	-1.747E-02	 4.118E+01	-3.003E+00	 3.730E+01	 4.240E-02	-2.213E-02	 2.528E-01	-5.731E-02	-2.495E+01	-1.380E+00	-1.670E+00	 1.265E+01	-2.265E+00	 5.573E+02	 1.088E+03
  10.160	 6.834E+01	 9.495E-01	 1.808E+00	-3.351E+01	 1.776E-01	-1.802E-02	 4.161E+01	-2.844E+00	 3.804E+01	 4.235E-02	-2.198E-02	 2.134E-01	-6.644E-02	-2.498E+01	-1.368E+00	 2.553E+00	 1.290E+01	-1.822E+00	 5.501E+02	 1.081E+03
  10.180	 7.486E+01	 9.786E-01	 1.088E+00	-3.805E+01	 1.804E-01	-1.812E-02	 4.138E+01	-3.237E+00	 3.846E+01	 4.237E-02	-2.187E-02	 1.562E-01	-4.443E-02	-2.500E+01	-1.291E+00	 4.948E+00	 1.319E+01	-1.427E+00	 5.404E+02	 1.077E+03
  10.200	 8.138E+01	 9.926E-01	 3.065E-01	-3.969E+01	 1.819E-01	-1.772E-02	 4.117E+01	-4.170E+00	 3.834E+01	 4.247E-02	-2.176E-02	 1.306E-01	-2.691E-02	-2.503E+01	-1.175E+00	 6.608E+00	 1.351E+01	-1.025E+00	 5.326E+02	 1.080E+03
  10.220	 8.790E+01	 9.907E-01	-4.913E-01	-4.004E+01	 1.816E-01	-1.718E-02	 4.133E+01	-5.030E+00	 3.795E+01	 4.261E-02	-2.168E-02	 1.462E-01	-3.934E-02	-2.505E+01	-1.023E+00	 8.724E+00	 1.372E+01	-5.700E-01	 5.295E+02	 1.090E+03
  10.240	 9.442E+01	 9.729E-01	-1.295E+00	-4.025E+01	 1.800E-01	-1.693E-02	 4.165E+01	-5.114E+00	 3.766E+01	 4.282E-02	-2.160E-02	 1.710E-01	-7.722E-02	-2.507E+01	-8.226E-01	 1.134E+01	 1.366E+01	-9.425E-02	 5.309E+02	 1.104E+03
  10.260	 1.009E+02	 9.390E-01	-2.093E+00	-3.931E+01	 1.780E-01	-1.720E-02	 4.171E+01	-4.154E+00	 3.762E+01	 4.309E-02	-2.156E-02	 1.669E-01	-1.150E-01	-2.508E+01	-5.733E-01	 1.338E+01	 1.328E+01	 3.244E-01	 5.343E+02	 1.117E+03
  10.280	 1.075E+02	 8.894E-01	-2.857E+00	-3.685E+01	 1.765E-01	-1.790E-02	 4.131E+01	-2.462E+00	 3.765E+01	 4.343E-02	-2.157E-02	 1.234E-01	-1.301E-01	-2.509E+01	-2.984E-01	 1.378E+01	 1.270E+01	 6.355E-01	 5.369E+02	 1.127E+03
  10.300	 1.140E+02	 8.251E-01	-3.556E+00	-3.271E+01	 1.757E-01	-1.872E-02	 4.064E+01	-6.455E-01	 3.754E+01	 4.381E-02	-2.162E-02	 6.311E-02	-1.199E-01	-2.509E+01	-3.421E-02	 1.240E+01	 1.209E+01	 8.511E-01	 5.380E+02	 1.136E+03
  10.320	 1.205E+02	 7.478E-01	-4.161E+00	-2.783E+01	 1.754E-01	-1.939E-02	 4.008E+01	 8.299E-01	 3.727E+01	 4.422E-02	-2.172E-02	 1.691E-02	-9.960E-02	-2.509E+01	 1.921E-01	 1.020E+01	 1.157E+01	 1.031E+00	 5.389E+02	 1.147E+03
  10.340	 1.270E+02	 6.593E-01	-4.666E+00	-2.261E+01	 1.749E-01	-1.986E-02	 3.980E+01	 1.931E+00	 3.698E+01	 4.464E-02	-2.187E-02	-2.711E-03	-8.560E-02	-2.509E+01	 3.759E-01	 8.284E+00	 1.114E+01	 1.212E+00	 5.416E+02	 1.161E+03
  10.360	 1.335E+02	 5.619E-01	-5.061E+00	-1.671E+01	 1.744E-01	-2.024E-02	 3.971E+01	 2.987E+00	 3.685E+01	 4.506E-02	-2.205E-02	-6.641E-03	-8.342E-02	-2.508E+01	 5.282E-01	 7.036E+00	 1.074E+01	 1.377E+00	 5.473E+02	 1.177E+03
  10.380	 1.400E+02	 4.577E-01	-5.329E+00	-9.959E+00	 1.737E-01	-2.076E-02	 3.962E+01	 4.373E+00	 3.692E+01	 4.548E-02	-2.226E-02	-1.420E-02	-8.621E-02	-2.507E+01	 6.585E-01	 5.952E+00	 1.027E+01	 1.465E+00	 5.554E+02	 1.191E+03
  10.400	 1.466E+02	 3.496E-01	-5.455E+00	-2.562E+00	 1.732E-01	-2.153E-02	 3.944E+01	 6.225E+00	 3.705E+01	 4.589E-02	-2.250E-02	-3.458E-02	-8.342E-02	-2.505E+01	 7.624E-01	 4.309E+00	 9.706E+00	 1.423E+00	 5.648E+02	 1.203E+03
  10.420	 1.531E+02	 2.405E-01	-5.433E+00	 4.644E+00	 1.730E-01	-2.250E-02	 3.926E+01	 8.371E+00	 3.713E+01	 4.628E-02	-2.278E-02	-6.135E-02	-6.970E-02	-2.504E+01	 8.261E-01	 1.985E+00	 9.110E+00	 1.248E+00	 5.742E+02	 1.213E+03
  10.440	 1.596E+02	 1.332E-01	-5.280E+00	 1.033E+01	 1.732E-01	-2.355E-02	 3.922E+01	 1.052E+01	 3.711E+01	 4.665E-02	-2.309E-02	-8.237E-02	-4.649E-02	-2.502E+01	 8.411E-01	-4.415E-01	 8.548E+00	 9.774E-01	 5.833E+02	 1.221E+03
  10.460	 1.661E+02	 2.999E-02	-5.025E+00	 1.477E+01	 1.741E-01	-2.457E-02	 3.938E+01	 1.250E+01	 3.708E+01	 4.699E-02	-2.341E-02	-8.937E-02	-1.958E-02	-2.500E+01	 8.120E-01	-2.338E+00	 8.062E+00	 6.466E-01	 5.924E+02	 1.229E+03
  10.480	 1.726E+02	-6.787E-02	-4.810E+00	 2.747E+00	 1.754E-01	-2.560E-02	 3.926E+01	 1.458E+01	 3.664E+01	 4.730E-02	-2.374E-02	-1.077E-01	 2.008E-02	-2.499E+01	 7.380E-01	-5.941E+00	 7.718E+00	 1.817E-01	 6.017E+02	 1.237E+03
  10.500	 1.791E+02	-1.637E-01	-4.809E+00	-1.506E+01	 1.763E-01	-2.676E-02	 3.832E+01	 1.706E+01	 3.608E+01	 4.756E-02	-2.407E-02	-1.338E-01	 6.605E-02	-2.497E+01	 5.749E-01	-1.030E+01	 7.663E+00	-4.609E-01	 6.120E+02	 1.245E+03
  10.520	 1.857E+02	-2.651E-01	-5.276E+00	-1.085E+00	 1.746E-01	-2.776E-02	 3.649E+01	 1.991E+01	 3.553E+01	 4.776E-02	-2.436E-02	-1.695E-01	 1.131E-01	-2.496E+01	 3.235E-01	-1.422E+01	 8.199E+00	-1.215E+00	 6.234E+02	 1.252E+03
  10.540	 1.922E+02	-3.665E-01	-4.719E+00	 4.351E+01	 1.706E-01	-2.824E-02	 3.703E+01	 2.142E+01	 3.482E+01	 4.790E-02	-2.462E-02	-9.826E-02	 9.905E-02	-2.496E+01	 3.202E-02	-1.361E+01	 8.217E+00	-1.687E+00	 6.348E+02	 1.258E+03
  10.560	 1.987E+02	-4.532E-01	-4.030E+00	 2.028E+01	 1.686E-01	-2.840E-02	 3.922E+01	 2.162E+01	 3.538E+01	 4.801E-02	-2.483E-02	-2.683E-02	 6.591E-02	-2.496E+01	-1.865E-01	-8.137E+00	 8.057E+00	-1.789E+00	 6.431E+02	 1.259E+03
  10.580	 2.052E+02	-5.311E-01	-3.794E+00	 9.297E+00	 1.698E-01	-2.909E-02	 4.032E+01	 2.301E+01	 3.683E+01	 4.809E-02	-2.502E-02	-2.625E-02	 6.973E-02	-2.497E+01	-3.141E-01	-5.500E+00	 8.332E+00	-1.970E+00	 6.458E+02	 1.254E+03
  10.600	 2.117E+02	-6.046E-01	-3.538E+00	 1.536E+01	 1.740E-01	-3.065E-02	 3.957E+01	 2.608E+01	 3.806E+01	 4.817E-02	-2.518E-02	-8.507E-02	 1.249E-01	-2.498E+01	-4.409E-01	-7.845E+00	 8.947E+00	-2.442E+00	 6.440E+02	 1.248E+03
  10.620	 2.182E+02	-6.726E-01	-3.280E+00	 8.570E+00	 1.797E-01	-3.262E-02	 3.847E+01	 2.953E+01	 3.826E+01	 4.821E-02	-2.528E-02	-1.304E-01	 1.843E-01	-2.499E+01	-6.398E-01	-1.194E+01	 9.855E+00	-2.936E+00	 6.416E+02	 1.246E+03
  10.640	 2.248E+02	-7.370E-01	-3.181E+00	 3.394E+00	 1.844E-01	-3.438E-02	 3.846E+01	 3.230E+01	 3.759E+01	 4.821E-02	-2.532E-02	-1.064E-01	 1.936E-01	-2.500E+01	-9.011E-01	-1.351E+01	 1.095E+01	-3.126E+00	 6.419E+02	 1.250E+03
  10.660	 2.313E+02	-7.996E-01	-3.060E+00	 1.017E+01	 1.868E-01	-3.562E-02	 3.974E+01	 3.399E+01	 3.692E+01	 4.816E-02	-2.528E-02	-3.126E-02	 1.466E-01	-2.502E+01	-1.151E+00	-1.082E+01	 1.190E+01	-2.951E+00	 6.444E+02	 1.255E+03
  10.680	 2.378E+02	-8.581E-01	-2.756E+00	 2.005E+01	 1.880E-01	-3.633E-02	 4.138E+01	 3.476E+01	 3.693E+01	 4.810E-02	-2.518E-02	 2.757E-02	 8.196E-02	-2.505E+01	-1.316E+00	-5.436E+00	 1.248E+01	-2.538E+00	 6.453E+02	 1.255E+03
  10.700	 2.443E+02	-9.086E-01	-2.268E+00	 2.844E+01	 1.895E-01	-3.675E-02	 4.233E+01	 3.523E+01	 3.758E+01	 4.805E-02	-2.505E-02	 2.458E-02	 4.449E-02	-2.507E+01	-1.369E+00	-1.157E-01	 1.280E+01	-2.059E+00	 6.409E+02	 1.250E+03
  10.720	 2.508E+02	-9.479E-01	-1.631E+00	 3.492E+01	 1.919E-01	-3.714E-02	 4.228E+01	 3.585E+01	 3.827E+01	 4.800E-02	-2.490E-02	-2.507E-02	 4.820E-02	-2.510E+01	-1.333E+00	 3.449E+00	 1.306E+01	-1.624E+00	 6.311E+02	 1.241E+03
  10.740	 2.573E+02	-9.732E-01	-8.902E-01	 3.868E+01	 1.945E-01	-3.760E-02	 4.179E+01	 3.668E+01	 3.849E+01	 4.795E-02	-2.473E-02	-6.823E-02	 6.910E-02	-2.513E+01	-1.241E+00	 5.502E+00	 1.337E+01	-1.226E+00	 6.191E+02	 1.235E+03
  10.760	 2.639E+02	-9.832E-01	-1.019E-01	 3.989E+01	 1.962E-01	-3.806E-02	 4.152E+01	 3.743E+01	 3.824E+01	 4.787E-02	-2.453E-02	-6.762E-02	 7.180E-02	-2.515E+01	-1.114E+00	 7.331E+00	 1.366E+01	-7.991E-01	 6.091E+02	 1.234E+03
  10.780	 2.704E+02	-9.772E-01	 7.024E-01	 4.053E+01	 1.963E-01	-3.831E-02	 4.160E+01	 3.771E+01	 3.786E+01	 4.776E-02	-2.430E-02	-3.152E-02	 4.136E-02	-2.517E+01	-9.438E-01	 9.776E+00	 1.377E+01	-3.269E-01	 6.032E+02	 1.237E+03
  10.800	 2.769E+02	-9.550E-01	 1.517E+00	 4.070E+01	 1.948E-01	-3.811E-02	 4.167E+01	 3.722E+01	 3.768E+01	 4.765E-02	-2.406E-02	 9.061E-04	-7.417E-03	-2.519E+01	-7.216E-01	 1.237E+01	 1.357E+01	 1.322E-01	 6.000E+02	 1.239E+03
  10.820	 2.834E+02	-9.166E-01	 2.319E+00	 3.926E+01	 1.923E-01	-3.733E-02	 4.132E+01	 3.592E+01	 3.770E+01	 4.753E-02	-2.382E-02	-8.485E-04	-4.737E-02	-2.520E+01	-4.563E-01	 1.389E+01	 1.309E+01	 5.051E-01	 5.966E+02	 1.238E+03
  10.840	 2.899E+02	-8.625E-01	 3.076E+00	 3.625E+01	 1.889E-01	-3.608E-02	 4.051E+01	 3.408E+01	 3.771E+01	 4.741E-02	-2.360E-02	-3.410E-02	-6.215E-02	-2.521E+01	-1.786E-01	 1.356E+01	 1.247E+01	 7.654E-01	 5.911E+02	 1.233E+03
  10.860	 2.964E+02	-7.940E-01	 3.758E+00	 3.173E+01	 1.849E-01	-3.466E-02	 3.955E+01	 3.217E+01	 3.753E+01	 4.727E-02	-2.341E-02	-7.023E-02	-5.684E-02	-2.521E+01	 7.552E-02	 1.169E+01	 1.188E+01	 9.481E-01	 5.836E+02	 1.226E+03
  10.880	 3.030E+02	-7.129E-01	 4.342E+00	 2.664E+01	 1.805E-01	-3.339E-02	 3.882E+01	 3.056E+01	 3.724E+01	 4.711E-02	-2.323E-02	-8.344E-02	-4.897E-02	-2.520E+01	 2.866E-01	 9.451E+00	 1.140E+01	 1.115E+00	 5.762E+02	 1.221E+03
  10.900	 3.095E+02	-6.210E-01	 4.822E+00	 2.120E+01	 1.761E-01	-3.241E-02	 3.840E+01	 2.929E+01	 3.700E+01	 4.692E-02	-2.308E-02	-7.097E-02	-5.158E-02	-2.520E+01	 4.574E-01	 7.754E+00	 1.100E+01	 1.286E+00	 5.707E+02	 1.217E+03
  10.920	 3.160E+02	-5.208E-01	 5.184E+00	 1.489E+01	 1.727E-01	-3.164E-02	 3.819E+01	 2.809E+01	 3.696E+01	 4.670E-02	-2.294E-02	-4.932E-02	-6.492E-02	-2.518E+01	 6.007E-01	 6.617E+00	 1.057E+01	 1.421E+00	 5.679E+02	 1.214E+03
  10.940	 3.225E+02	-4.146E-01	 5.411E+00	 7.673E+00	 1.707E-01	-3.088E-02	 3.803E+01	 2.662E+01	 3.707E+01	 4.645E-02	-2.284E-02	-3.601E-02	-7.946E-02	-2.517E+01	 7.212E-01	 5.356E+00	 1.007E+01	 1.458E+00	 5.670E+02	 1.208E+03
  10.960	 3.290E+02	-3.053E-01	 5.488E+00	 5.696E-02	 1.704E-01	-2.999E-02	 3.790E+01	 2.472E+01	 3.720E+01	 4.620E-02	-2.276E-02	-3.456E-02	-8.569E-02	-2.516E+01	 8.101E-01	 3.411E+00	 9.493E+00	 1.360E+00	 5.669E+02	 1.200E+03
  10.980	 3.356E+02	-1.960E-01	 5.417E+00	-6.917E+00	 1.712E-01	-2.901E-02	 3.790E+01	 2.257E+01	 3.723E+01	 4.593E-02	-2.272E-02	-3.529E-02	-8.076E-02	-2.514E+01	 8.542E-01	 9.700E-01	 8.905E+00	 1.144E+00	 5.667E+02	 1.190E+03
  11.000	 3.421E+02	-8.946E-02	 5.224E+00	-1.215E+01	 1.725E-01	-2.810E-02	 3.812E+01	 2.044E+01	 3.720E+01	 4.564E-02	-2.271E-02	-2.768E-02	-6.764E-02	-2.512E+01	 8.502E-01	-1.300E+00	 8.371E+00	 8.488E-01	 5.665E+02	 1.181E+03
  11.020	 3.486E+02	 1.229E-02	 4.940E+00	-1.538E+01	 1.739E-01	-2.734E-02	 3.852E+01	 1.849E+01	 3.718E+01	 4.535E-02	-2.273E-02	-7.091E-03	-5.193E-02	-2.511E+01	 8.068E-01	-2.947E+00	 7.916E+00	 4.960E-01	 5.670E+02	 1.171E+03
  11.040	 3.551E+02	 1.093E-01	 4.812E+00	-3.815E+00	 1.758E-01	-2.668E-02	 3.808E+01	 1.578E+01	 3.648E+01	 4.505E-02	-2.277E-02	-6.216E-03	-1.945E-02	-2.509E+01	 7.012E-01	-7.723E+00	 7.683E+00	-5.130E-02	 5.684E+02	 1.163E+03
  11.060	 1.619E+00	 2.062E-01	 5.016E+00	 3.378E+01	 1.773E-01	-2.483E-02	 3.568E+01	 1.255E+01	 3.589E+01	 4.474E-02	-2.281E-02	-4.601E-02	 3.198E-02	-2.508E+01	 5.048E-01	-1.228E+01	 7.831E+00	-7.607E-01	 5.714E+02	 1.154E+03
  11.080	 8.134E+00	 3.104E-01	 5.187E+00	-2.529E+01	 1.766E-01	-2.242E-02	 3.548E+01	 9.258E+00	 3.531E+01	 4.443E-02	-2.284E-02	-8.461E-03	 4.069E-02	-2.507E+01	 2.287E-01	-1.488E+01	 8.292E+00	-1.455E+00	 5.766E+02	 1.148E+03
  11.100	 1.465E+01	 4.067E-01	 4.400E+00	-3.940E+01	 1.716E-01	-2.170E-02	 3.740E+01	 8.222E+00	 3.495E+01	 4.411E-02	-2.286E-02	 8.960E-02	 5.841E-03	-2.507E+01	-4.666E-02	-1.159E+01	 8.122E+00	-1.754E+00	 5.815E+02	 1.141E+03
  11.120	 2.116E+01	 4.887E-01	 3.898E+00	-1.255E+01	 1.644E-01	-2.205E-02	 3.906E+01	 8.758E+00	 3.595E+01	 4.382E-02	-2.288E-02	 1.515E-01	-2.552E-02	-2.507E+01	-2.225E-01	-6.405E+00	 8.097E+00	-1.830E+00	 5.830E+02	 1.130E+03
  11.140	 2.768E+01	 5.646E-01	 3.686E+00	-1.274E+01	 1.603E-01	-2.195E-02	 3.931E+01	 8.013E+00	 3.745E+01	 4.360E-02	-2.290E-02	 1.342E-01	-5.244E-03	-2.508E+01	-3.346E-01	-5.715E+00	 8.509E+00	-2.125E+00	 5.799E+02	 1.116E+03
  11.160	 3.419E+01	 6.354E-01	 3.383E+00	-1.492E+01	 1.607E-01	-2.077E-02	 3.831E+01	 5.434E+00	 3.833E+01	 4.342E-02	-2.293E-02	 7.830E-02	 5.586E-02	-2.509E+01	-4.799E-01	-9.225E+00	 9.220E+00	-2.655E+00	 5.746E+02	 1.106E+03
  11.180	 4.071E+01	 7.006E-01	 3.174E+00	-5.886E+00	 1.637E-01	-1.900E-02	 3.741E+01	 1.972E+00	 3.812E+01	 4.328E-02	-2.293E-02	 6.020E-02	 9.925E-02	-2.510E+01	-7.039E-01	-1.281E+01	 1.022E+01	-3.066E+00	 5.714E+02	 1.103E+03
  11.200	 4.723E+01	 7.632E-01	 3.084E+00	-5.397E+00	 1.674E-01	-1.754E-02	 3.785E+01	-1.096E+00	 3.733E+01	 4.317E-02	-2.290E-02	 1.107E-01	 8.495E-02	-2.511E+01	-9.677E-01	-1.282E+01	 1.130E+01	-3.118E+00	 5.724E+02	 1.106E+03
  11.220	 5.374E+01	 8.233E-01	 2.894E+00	-1.424E+01	 1.707E-01	-1.700E-02	 3.942E+01	-2.777E+00	 3.685E+01	 4.310E-02	-2.283E-02	 1.863E-01	 2.651E-02	-2.514E+01	-1.190E+00	-8.858E+00	 1.211E+01	-2.839E+00	 5.755E+02	 1.111E+03
  11.240	 6.026E+01	 8.776E-01	 2.515E+00	-2.338E+01	 1.738E-01	-1.733E-02	 4.097E+01	-3.071E+00	 3.713E+01	 4.310E-02	-2.276E-02	 2.199E-01	-2.975E-02	-2.516E+01	-1.311E+00	-3.248E+00	 1.256E+01	-2.387E+00	 5.764E+02	 1.112E+03
  11.260	 6.678E+01	 9.227E-01	 1.969E+00	-3.092E+01	 1.770E-01	-1.791E-02	 4.165E+01	-2.880E+00	 3.786E+01	 4.319E-02	-2.269E-02	 1.876E-01	-4.738E-02	-2.519E+01	-1.326E+00	 1.454E+00	 1.284E+01	-1.921E+00	 5.726E+02	 1.110E+03
  11.280	 7.329E+01	 9.555E-01	 1.292E+00	-3.624E+01	 1.800E-01	-1.815E-02	 4.154E+01	-3.106E+00	 3.841E+01	 4.336E-02	-2.264E-02	 1.243E-01	-2.787E-02	-2.521E+01	-1.266E+00	 4.282E+00	 1.312E+01	-1.506E+00	 5.652E+02	 1.109E+03
  11.300	 7.981E+01	 9.739E-01	 5.389E-01	-3.865E+01	 1.819E-01	-1.786E-02	 4.128E+01	-3.943E+00	 3.842E+01	 4.357E-02	-2.261E-02	 8.315E-02	-3.834E-03	-2.524E+01	-1.162E+00	 6.044E+00	 1.344E+01	-1.101E+00	 5.583E+02	 1.114E+03
  11.320	 8.633E+01	 9.769E-01	-2.419E-01	-3.932E+01	 1.821E-01	-1.732E-02	 4.136E+01	-4.892E+00	 3.806E+01	 4.382E-02	-2.257E-02	 8.585E-02	-6.138E-03	-2.526E+01	-1.022E+00	 8.040E+00	 1.369E+01	-6.485E-01	 5.553E+02	 1.126E+03
  11.340	 9.285E+01	 9.642E-01	-1.033E+00	-3.978E+01	 1.808E-01	-1.697E-02	 4.169E+01	-5.216E+00	 3.773E+01	 4.410E-02	-2.254E-02	 1.089E-01	-3.812E-02	-2.528E+01	-8.359E-01	 1.065E+01	 1.371E+01	-1.632E-01	 5.569E+02	 1.141E+03
  11.360	 9.937E+01	 9.355E-01	-1.827E+00	-3.939E+01	 1.789E-01	-1.712E-02	 4.186E+01	-4.506E+00	 3.764E+01	 4.443E-02	-2.252E-02	 1.121E-01	-7.753E-02	-2.529E+01	-5.978E-01	 1.300E+01	 1.340E+01	 2.813E-01	 5.609E+02	 1.156E+03
  11.380	 1.059E+02	 8.912E-01	-2.597E+00	-3.739E+01	 1.772E-01	-1.773E-02	 4.158E+01	-2.940E+00	 3.768E+01	 4.480E-02	-2.254E-02	 7.648E-02	-9.898E-02	-2.530E+01	-3.256E-01	 1.391E+01	 1.285E+01	 6.234E-01	 5.643E+02	 1.168E+03
  11.400	 1.124E+02	 8.320E-01	-3.312E+00	-3.379E+01	 1.763E-01	-1.856E-02	 4.095E+01	-1.090E+00	 3.762E+01	 4.520E-02	-2.259E-02	 1.737E-02	-9.407E-02	-2.531E+01	-5.434E-02	 1.294E+01	 1.222E+01	 8.574E-01	 5.658E+02	 1.177E+03
  11.420	 1.189E+02	 7.593E-01	-3.941E+00	-2.905E+01	 1.759E-01	-1.929E-02	 4.035E+01	 5.038E-01	 3.738E+01	 4.560E-02	-2.268E-02	-3.362E-02	-7.489E-02	-2.530E+01	 1.844E-01	 1.084E+01	 1.166E+01	 1.038E+00	 5.663E+02	 1.187E+03
  11.440	 1.254E+02	 6.750E-01	-4.472E+00	-2.400E+01	 1.756E-01	-1.981E-02	 4.000E+01	 1.690E+00	 3.708E+01	 4.600E-02	-2.280E-02	-5.814E-02	-5.890E-02	-2.530E+01	 3.798E-01	 8.785E+00	 1.121E+01	 1.213E+00	 5.678E+02	 1.199E+03
  11.460	 1.320E+02	 5.811E-01	-4.897E+00	-1.837E+01	 1.750E-01	-2.021E-02	 3.988E+01	 2.727E+00	 3.691E+01	 4.637E-02	-2.294E-02	-6.192E-02	-5.499E-02	-2.529E+01	 5.404E-01	 7.381E+00	 1.081E+01	 1.381E+00	 5.718E+02	 1.213E+03
  11.480	 1.385E+02	 4.799E-01	-5.201E+00	-1.186E+01	 1.744E-01	-2.068E-02	 3.981E+01	 4.011E+00	 3.694E+01	 4.672E-02	-2.311E-02	-6.386E-02	-5.896E-02	-2.528E+01	 6.774E-01	 6.319E+00	 1.035E+01	 1.488E+00	 5.782E+02	 1.225E+03
  11.500	 1.450E+02	 3.740E-01	-5.367E+00	-4.607E+00	 1.738E-01	-2.139E-02	 3.964E+01	 5.757E+00	 3.707E+01	 4.704E-02	-2.330E-02	-7.693E-02	-6.020E-02	-2.526E+01	 7.903E-01	 4.845E+00	 9.810E+00	 1.474E+00	 5.859E+02	 1.235E+03
  11.520	 1.515E+02	 2.662E-01	-5.385E+00	 2.745E+00	 1.735E-01	-2.232E-02	 3.945E+01	 7.862E+00	 3.717E+01	 4.733E-02	-2.351E-02	-9.832E-02	-5.156E-02	-2.525E+01	 8.662E-01	 2.642E+00	 9.216E+00	 1.323E+00	 5.936E+02	 1.242E+03
  11.540	 1.580E+02	 1.596E-01	-5.265E+00	 8.928E+00	 1.737E-01	-2.337E-02	 3.935E+01	 1.004E+01	 3.717E+01	 4.758E-02	-2.375E-02	-1.161E-01	-3.302E-02	-2.523E+01	 8.940E-01	 1.581E-01	 8.640E+00	 1.066E+00	 6.007E+02	 1.247E+03
  11.560	 1.645E+02	 5.637E-02	-5.038E+00	 1.382E+01	 1.743E-01	-2.439E-02	 3.946E+01	 1.207E+01	 3.713E+01	 4.778E-02	-2.399E-02	-1.209E-01	-9.429E-03	-2.521E+01	 8.751E-01	-1.939E+00	 8.135E+00	 7.419E-01	 6.075E+02	 1.250E+03
  11.580	 1.711E+02	-4.154E-02	-4.772E+00	 6.536E+00	 1.755E-01	-2.540E-02	 3.949E+01	 1.407E+01	 3.697E+01	 4.794E-02	-2.425E-02	-1.269E-01	 2.165E-02	-2.519E+01	 8.172E-01	-4.572E+00	 7.730E+00	 3.266E-01	 6.144E+02	 1.254E+03
  11.600	 1.776E+02	-1.363E-01	-4.715E+00	-1.694E+00	 1.766E-01	-2.654E-02	 3.891E+01	 1.643E+01	 3.625E+01	 4.805E-02	-2.449E-02	-1.349E-01	 6.008E-02	-2.518E+01	 6.764E-01	-9.137E+00	 7.603E+00	-2.822E-01	 6.218E+02	 1.256E+03
  11.620	 1.841E+02	-2.342E-01	-5.167E+00	-2.001E+01	 1.758E-01	-2.761E-02	 3.684E+01	 1.926E+01	 3.567E+01	 4.810E-02	-2.470E-02	-1.880E-01	 1.172E-01	-2.517E+01	 4.457E-01	-1.355E+01	 8.034E+00	-1.041E+00	 6.301E+02	 1.258E+03
  11.640	 1.906E+02	-3.368E-01	-4.880E+00	 3.988E+01	 1.719E-01	-2.823E-02	 3.674E+01	 2.130E+01	 3.497E+01	 4.807E-02	-2.487E-02	-1.258E-01	 1.103E-01	-2.516E+01	 1.552E-01	-1.453E+01	 8.237E+00	-1.622E+00	 6.392E+02	 1.260E+03
  11.660	 1.971E+02	-4.262E-01	-4.105E+00	 2.781E+01	 1.691E-01	-2.840E-02	 3.874E+01	 2.160E+01	 3.518E+01	 4.800E-02	-2.500E-02	-3.846E-02	 7.268E-02	-2.516E+01	-9.058E-02	-9.542E+00	 8.036E+00	-1.786E+00	 6.458E+02	 1.257E+03
  11.680	 2.036E+02	-5.045E-01	-3.795E+00	 8.689E+00	 1.695E-01	-2.888E-02	 4.028E+01	 2.253E+01	 3.650E+01	 4.791E-02	-2.510E-02	-1.074E-02	 5.947E-02	-2.516E+01	-2.355E-01	-5.703E+00	 8.199E+00	-1.907E+00	 6.472E+02	 1.248E+03
  11.700	 2.102E+02	-5.784E-01	-3.572E+00	 1.454E+01	 1.729E-01	-3.023E-02	 3.989E+01	 2.526E+01	 3.788E+01	 4.782E-02	-2.518E-02	-5.310E-02	 1.007E-01	-2.517E+01	-3.541E-01	-6.946E+00	 8.744E+00	-2.316E+00	 6.436E+02	 1.237E+03
  11.720	 2.167E+02	-6.469E-01	-3.291E+00	 1.101E+01	 1.784E-01	-3.215E-02	 3.869E+01	 2.873E+01	 3.837E+01	 4.770E-02	-2.521E-02	-1.026E-01	 1.617E-01	-2.518E+01	-5.327E-01	-1.102E+01	 9.579E+00	-2.840E+00	 6.384E+02	 1.229E+03
  11.740	 2.232E+02	-7.111E-01	-3.161E+00	 3.348E+00	 1.834E-01	-3.400E-02	 3.832E+01	 3.173E+01	 3.785E+01	 4.755E-02	-2.518E-02	-9.177E-02	 1.834E-01	-2.519E+01	-7.839E-01	-1.352E+01	 1.066E+01	-3.123E+00	 6.355E+02	 1.227E+03
  11.760	 2.297E+02	-7.736E-01	-3.070E+00	 7.627E+00	 1.864E-01	-3.537E-02	 3.930E+01	 3.369E+01	 3.709E+01	 4.736E-02	-2.507E-02	-1.907E-02	 1.452E-01	-2.521E+01	-1.045E+00	-1.187E+01	 1.167E+01	-3.030E+00	 6.355E+02	 1.228E+03
  11.780	 2.362E+02	-8.328E-01	-2.820E+00	 1.742E+01	 1.877E-01	-3.619E-02	 4.095E+01	 3.465E+01	 3.690E+01	 4.716E-02	-2.491E-02	 5.464E-02	 7.751E-02	-2.523E+01	-1.236E+00	-6.920E+00	 1.235E+01	-2.659E+00	 6.352E+02	 1.226E+03
  11.800	 2.427E+02	-8.851E-01	-2.382E+00	 2.616E+01	 1.889E-01	-3.665E-02	 4.212E+01	 3.513E+01	 3.742E+01	 4.698E-02	-2.472E-02	 7.241E-02	 2.785E-02	-2.526E+01	-1.318E+00	-1.365E+00	 1.272E+01	-2.180E+00	 6.305E+02	 1.219E+03
  11.820	 2.493E+02	-9.271E-01	-1.786E+00	 3.316E+01	 1.910E-01	-3.702E-02	 4.229E+01	 3.569E+01	 3.816E+01	 4.683E-02	-2.452E-02	 3.390E-02	 2.021E-02	-2.528E+01	-1.302E+00	 2.692E+00	 1.298E+01	-1.727E+00	 6.204E+02	 1.207E+03
  11.840	 2.558E+02	-9.558E-01	-1.072E+00	 3.772E+01	 1.936E-01	-3.746E-02	 4.182E+01	 3.648E+01	 3.852E+01	 4.669E-02	-2.431E-02	-1.284E-02	 3.870E-02	-2.531E+01	-1.222E+00	 5.030E+00	 1.328E+01	-1.321E+00	 6.074E+02	 1.198E+03
  11.860	 2.623E+02	-9.695E-01	-2.975E-01	 3.934E+01	 1.956E-01	-3.792E-02	 4.145E+01	 3.727E+01	 3.836E+01	 4.655E-02	-2.408E-02	-2.230E-02	 4.741E-02	-2.533E+01	-1.104E+00	 6.800E+00	 1.358E+01	-9.024E-01	 5.957E+02	 1.194E+03
  11.880	 2.688E+02	-9.676E-01	 4.963E-01	 4.003E+01	 1.961E-01	-3.825E-02	 4.145E+01	 3.770E+01	 3.797E+01	 4.640E-02	-2.383E-02	 9.058E-03	 2.414E-02	-2.535E+01	-9.464E-01	 9.085E+00	 1.375E+01	-4.350E-01	 5.881E+02	 1.196E+03
  11.900	 2.753E+02	-9.496E-01	 1.302E+00	 4.041E+01	 1.950E-01	-3.817E-02	 4.157E+01	 3.742E+01	 3.772E+01	 4.625E-02	-2.358E-02	 4.668E-02	-2.293E-02	-2.537E+01	-7.380E-01	 1.174E+01	 1.364E+01	 3.796E-02	 5.842E+02	 1.198E+03
  11.920	 2.818E+02	-9.155E-01	 2.103E+00	 3.942E+01	 1.926E-01	-3.754E-02	 4.134E+01	 3.631E+01	 3.771E+01	 4.613E-02	-2.333E-02	 5.439E-02	-6.729E-02	-2.538E+01	-4.817E-01	 1.365E+01	 1.322E+01	 4.401E-01	 5.812E+02	 1.198E+03
  11.940	 2.884E+02	-8.657E-01	 2.866E+00	 3.668E+01	 1.895E-01	-3.639E-02	 4.064E+01	 3.457E+01	 3.775E+01	 4.602E-02	-2.311E-02	 2.621E-02	-8.829E-02	-2.539E+01	-2.039E-01	 1.381E+01	 1.261E+01	 7.309E-01	 5.767E+02	 1.194E+03
  11.960	 2.949E+02	-8.013E-01	 3.561E+00	 3.257E+01	 1.857E-01	-3.498E-02	 3.968E+01	 3.263E+01	 3.762E+01	 4.592E-02	-2.293E-02	-1.394E-02	-8.547E-02	-2.539E+01	 5.891E-02	 1.225E+01	 1.199E+01	 9.296E-01	 5.703E+02	 1.189E+03
  11.980	 3.014E+02	-7.239E-01	 4.162E+00	 2.750E+01	 1.813E-01	-3.365E-02	 3.888E+01	 3.093E+01	 3.734E+01	 4.582E-02	-2.278E-02	-3.652E-02	-7.521E-02	-2.539E+01	 2.817E-01	 1.001E+01	 1.148E+01	 1.099E+00	 5.636E+02	 1.185E+03
  12.000	 3.079E+02	-6.355E-01	 4.660E+00	 2.222E+01	 1.769E-01	-3.260E-02	 3.840E+01	 2.959E+01	 3.707E+01	 4.570E-02	-2.266E-02	-3.256E-02	-7.284E-02	-2.538E+01	 4.623E-01	 8.160E+00	 1.106E+01	 1.271E+00	 5.588E+02	 1.183E+03
  12.020	 3.144E+02	-5.382E-01	 5.046E+00	 1.620E+01	 1.732E-01	-3.180E-02	 3.816E+01	 2.840E+01	 3.698E+01	 4.557E-02	-2.257E-02	-1.500E-02	-8.200E-02	-2.537E+01	 6.125E-01	 6.943E+00	 1.065E+01	 1.421E+00	 5.569E+02	 1.183E+03
  12.040	 3.210E+02	-4.345E-01	 5.302E+00	 9.222E+00	 1.709E-01	-3.106E-02	 3.800E+01	 2.702E+01	 3.706E+01	 4.544E-02	-2.251E-02	-2.835E-03	-9.484E-02	-2.536E+01	 7.404E-01	 5.790E+00	 1.016E+01	 1.486E+00	 5.574E+02	 1.181E+03
  12.060	 3.275E+02	-3.271E-01	 5.411E+00	 1.679E+00	 1.702E-01	-3.020E-02	 3.787E+01	 2.522E+01	 3.719E+01	 4.530E-02	-2.249E-02	-3.642E-03	-1.010E-01	-2.534E+01	 8.400E-01	 4.034E+00	 9.592E+00	 1.419E+00	 5.592E+02	 1.177E+03
  12.080	 3.340E+02	-2.191E-01	 5.371E+00	-5.520E+00	 1.708E-01	-2.924E-02	 3.784E+01	 2.310E+01	 3.725E+01	 4.517E-02	-2.251E-02	-1.010E-02	-9.569E-02	-2.532E+01	 8.975E-01	 1.662E+00	 8.996E+00	 1.224E+00	 5.611E+02	 1.172E+03
  12.100	 3.405E+02	-1.132E-01	 5.202E+00	-1.109E+01	 1.721E-01	-2.830E-02	 3.802E+01	 2.095E+01	 3.723E+01	 4.502E-02	-2.256E-02	-1.078E-02	-8.089E-02	-2.530E+01	 9.064E-01	-7.108E-01	 8.441E+00	 9.412E-01	 5.632E+02	 1.166E+03
  12.120	 3.470E+02	-1.167E-02	 4.933E+00	-1.503E+01	 1.735E-01	-2.751E-02	 3.840E+01	 1.896E+01	 3.720E+01	 4.488E-02	-2.265E-02	 9.454E-04	-6.213E-02	-2.529E+01	 8.730E-01	-2.537E+00	 7.963E+00	 5.992E-01	 5.657E+02	 1.161E+03
  12.140	 3.535E+02	 8.446E-02	 4.736E+00	-2.387E+00	 1.751E-01	-2.686E-02	 3.819E+01	 1.647E+01	 3.666E+01	 4.473E-02	-2.277E-02	-2.405E-03	-2.853E-02	-2.527E+01	 7.912E-01	-6.507E+00	 7.650E+00	 1.049E-01	 5.692E+02	 1.156E+03
  12.160	 5.510E-02	 1.789E-01	 4.781E+00	 2.290E+01	 1.772E-01	-2.547E-02	 3.654E+01	 1.346E+01	 3.611E+01	 4.459E-02	-2.289E-02	-2.448E-02	 1.542E-02	-2.526E+01	 6.185E-01	-1.093E+01	 7.645E+00	-5.650E-01	 5.743E+02	 1.153E+03
  12.180	 6.571E+00	 2.799E-01	 5.186E+00	-7.977E+00	 1.772E-01	-2.290E-02	 3.524E+01	 9.990E+00	 3.556E+01	 4.443E-02	-2.301E-02	-3.144E-02	 4.801E-02	-2.525E+01	 3.586E-01	-1.457E+01	 8.188E+00	-1.313E+00	 5.813E+02	 1.151E+03
  12.200	 1.308E+01	 3.782E-01	 4.528E+00	-4.326E+01	 1.734E-01	-2.173E-02	 3.690E+01	 8.193E+00	 3.491E+01	 4.427E-02	-2.312E-02	 5.547E-02	 2.399E-02	-2.524E+01	 7.028E-02	-1.299E+01	 8.133E+00	-1.730E+00	 5.889E+02	 1.149E+03
  12.220	 1.960E+01	 4.615E-01	 3.896E+00	-1.726E+01	 1.663E-01	-2.197E-02	 3.880E+01	 8.651E+00	 3.562E+01	 4.412E-02	-2.321E-02	 1.282E-01	-1.141E-02	-2.524E+01	-1.337E-01	-7.487E+00	 8.010E+00	-1.818E+00	 5.937E+02	 1.143E+03
  12.240	 2.611E+01	 5.370E-01	 3.676E+00	-1.036E+01	 1.612E-01	-2.210E-02	 3.946E+01	 8.379E+00	 3.710E+01	 4.403E-02	-2.331E-02	 1.248E-01	-3.239E-03	-2.525E+01	-2.543E-01	-5.476E+00	 8.333E+00	-2.036E+00	 5.937E+02	 1.134E+03
  12.260	 3.263E+01	 6.080E-01	 3.401E+00	-1.550E+01	 1.605E-01	-2.118E-02	 3.869E+01	 6.201E+00	 3.821E+01	 4.398E-02	-2.340E-02	 6.654E-02	 5.486E-02	-2.525E+01	-3.859E-01	-8.270E+00	 8.979E+00	-2.533E+00	 5.905E+02	 1.126E+03
  12.280	 3.915E+01	 6.733E-01	 3.158E+00	-7.485E+00	 1.631E-01	-1.948E-02	 3.762E+01	 2.846E+00	 3.827E+01	 4.397E-02	-2.348E-02	 2.851E-02	 1.106E-01	-2.526E+01	-5.933E-01	-1.228E+01	 9.922E+00	-3.005E+00	 5.881E+02	 1.124E+03
  12.300	 4.566E+01	 7.354E-01	 3.069E+00	-3.618E+00	 1.668E-01	-1.786E-02	 3.769E+01	-4.391E-01	 3.754E+01	 4.396E-02	-2.351E-02	 5.891E-02	 1.134E-01	-2.528E+01	-8.571E-01	-1.339E+01	 1.102E+01	-3.150E+00	 5.895E+02	 1.129E+03
  12.320	 5.218E+01	 7.957E-01	 2.933E+00	-1.107E+01	 1.702E-01	-1.707E-02	 3.907E+01	-2.519E+00	 3.691E+01	 4.398E-02	-2.350E-02	 1.310E-01	 6.367E-02	-2.530E+01	-1.100E+00	-1.029E+01	 1.193E+01	-2.937E+00	 5.937E+02	 1.137E+03
  12.340	 5.869E+01	 8.515E-01	 2.615E+00	-2.054E+01	 1.733E-01	-1.722E-02	 4.074E+01	-3.105E+00	 3.700E+01	 4.405E-02	-2.346E-02	 1.766E-01	 3.383E-03	-2.532E+01	-1.253E+00	-4.820E+00	 1.247E+01	-2.506E+00	 5.965E+02	 1.142E+03
  12.360	 6.521E+01	 8.991E-01	 2.122E+00	-2.850E+01	 1.765E-01	-1.780E-02	 4.167E+01	-2.938E+00	 3.768E+01	 4.419E-02	-2.342E-02	 1.572E-01	-2.475E-02	-2.535E+01	-1.295E+00	 2.958E-01	 1.278E+01	-2.024E+00	 5.946E+02	 1.142E+03
  12.380	 7.173E+01	 9.354E-01	 1.488E+00	-3.454E+01	 1.796E-01	-1.816E-02	 4.171E+01	-3.012E+00	 3.832E+01	 4.439E-02	-2.339E-02	 9.486E-02	-1.179E-02	-2.537E+01	-1.253E+00	 3.603E+00	 1.305E+01	-1.588E+00	 5.883E+02	 1.141E+03
  12.400	 7.825E+01	 9.580E-01	 7.599E-01	-3.777E+01	 1.819E-01	-1.800E-02	 4.143E+01	-3.722E+00	 3.848E+01	 4.463E-02	-2.336E-02	 4.341E-02	 1.478E-02	-2.540E+01	-1.161E+00	 5.546E+00	 1.337E+01	-1.178E+00	 5.810E+02	 1.145E+03
  12.420	 8.477E+01	 9.656E-01	-7.685E-03	-3.880E+01	 1.826E-01	-1.748E-02	 4.140E+01	-4.710E+00	 3.818E+01	 4.489E-02	-2.333E-02	 3.542E-02	 2.043E-02	-2.542E+01	-1.032E+00	 7.440E+00	 1.366E+01	-7.331E-01	 5.767E+02	 1.155E+03
  12.440	 9.128E+01	 9.576E-01	-7.903E-01	-3.945E+01	 1.816E-01	-1.704E-02	 4.171E+01	-5.245E+00	 3.781E+01	 4.516E-02	-2.329E-02	 5.744E-02	-6.062E-03	-2.544E+01	-8.583E-01	 9.979E+00	 1.374E+01	-2.456E-01	 5.770E+02	 1.170E+03
  12.460	 9.780E+01	 9.339E-01	-1.582E+00	-3.950E+01	 1.797E-01	-1.706E-02	 4.196E+01	-4.794E+00	 3.766E+01	 4.546E-02	-2.325E-02	 6.969E-02	-4.712E-02	-2.545E+01	-6.321E-01	 1.255E+01	 1.351E+01	 2.188E-01	 5.801E+02	 1.185E+03
  12.480	 1.043E+02	 8.944E-01	-2.359E+00	-3.790E+01	 1.780E-01	-1.758E-02	 4.180E+01	-3.389E+00	 3.770E+01	 4.578E-02	-2.324E-02	 4.562E-02	-7.589E-02	-2.546E+01	-3.646E-01	 1.392E+01	 1.300E+01	 5.895E-01	 5.831E+02	 1.196E+03
  12.500	 1.108E+02	 8.398E-01	-3.090E+00	-3.486E+01	 1.769E-01	-1.839E-02	 4.123E+01	-1.542E+00	 3.768E+01	 4.612E-02	-2.325E-02	-7.811E-03	-7.841E-02	-2.547E+01	-8.832E-02	 1.340E+01	 1.236E+01	 8.455E-01	 5.840E+02	 1.204E+03
  12.520	 1.174E+02	 7.714E-01	-3.743E+00	-3.030E+01	 1.764E-01	-1.917E-02	 4.059E+01	 1.580E-01	 3.749E+01	 4.646E-02	-2.329E-02	-6.014E-02	-6.268E-02	-2.547E+01	 1.619E-01	 1.148E+01	 1.177E+01	 1.030E+00	 5.834E+02	 1.211E+03
  12.540	 1.239E+02	 6.908E-01	-4.300E+00	-2.535E+01	 1.760E-01	-1.975E-02	 4.017E+01	 1.442E+00	 3.719E+01	 4.677E-02	-2.336E-02	-8.796E-02	-4.636E-02	-2.546E+01	 3.693E-01	 9.316E+00	 1.130E+01	 1.200E+00	 5.831E+02	 1.220E+03
  12.560	 1.304E+02	 6.001E-01	-4.754E+00	-1.994E+01	 1.756E-01	-2.016E-02	 4.000E+01	 2.485E+00	 3.697E+01	 4.705E-02	-2.345E-02	-9.126E-02	-4.136E-02	-2.545E+01	 5.387E-01	 7.739E+00	 1.089E+01	 1.369E+00	 5.848E+02	 1.230E+03
  12.580	 1.369E+02	 5.014E-01	-5.091E+00	-1.365E+01	 1.749E-01	-2.060E-02	 3.993E+01	 3.681E+00	 3.695E+01	 4.730E-02	-2.355E-02	-8.743E-02	-4.646E-02	-2.544E+01	 6.823E-01	 6.652E+00	 1.045E+01	 1.493E+00	 5.889E+02	 1.240E+03
  12.600	 1.434E+02	 3.973E-01	-5.294E+00	-6.539E+00	 1.743E-01	-2.124E-02	 3.978E+01	 5.313E+00	 3.708E+01	 4.750E-02	-2.367E-02	-9.247E-02	-5.163E-02	-2.542E+01	 8.031E-01	 5.329E+00	 9.924E+00	 1.508E+00	 5.946E+02	 1.247E+03
  12.620	 1.499E+02	 2.906E-01	-5.351E+00	 8.910E-01	 1.739E-01	-2.213E-02	 3.957E+01	 7.356E+00	 3.719E+01	 4.767E-02	-2.381E-02	-1.076E-01	-4.819E-02	-2.541E+01	 8.904E-01	 3.281E+00	 9.335E+00	 1.385E+00	 6.004E+02	 1.250E+03
  12.640	 1.565E+02	 1.842E-01	-5.264E+00	 7.535E+00	 1.739E-01	-2.315E-02	 3.943E+01	 9.544E+00	 3.722E+01	 4.780E-02	-2.397E-02	-1.219E-01	-3.441E-02	-2.539E+01	 9.313E-01	 7.904E-01	 8.748E+00	 1.145E+00	 6.057E+02	 1.251E+03
  12.660	 1.630E+02	 8.082E-02	-5.062E+00	 1.249E+01	 1.743E-01	-2.419E-02	 3.947E+01	 1.162E+01	 3.719E+01	 4.788E-02	-2.415E-02	-1.254E-01	-1.395E-02	-2.537E+01	 9.237E-01	-1.460E+00	 8.223E+00	 8.315E-01	 6.105E+02	 1.251E+03
  12.680	 1.695E+02	-1.763E-02	-4.777E+00	 1.210E+01	 1.754E-01	-2.518E-02	 3.962E+01	 1.356E+01	 3.713E+01	 4.791E-02	-2.433E-02	-1.187E-01	 9.683E-03	-2.535E+01	 8.776E-01	-3.376E+00	 7.780E+00	 4.541E-01	 6.153E+02	 1.251E+03
  12.700	 1.760E+02	-1.119E-01	-4.681E+00	 4.303E+00	 1.766E-01	-2.629E-02	 3.921E+01	 1.586E+01	 3.641E+01	 4.789E-02	-2.451E-02	-1.222E-01	 4.543E-02	-2.534E+01	 7.609E-01	-8.170E+00	 7.590E+00	-1.229E-01	 6.205E+02	 1.250E+03
  12.720	 1.825E+02	-2.071E-01	-4.989E+00	-3.290E+01	 1.765E-01	-2.740E-02	 3.726E+01	 1.858E+01	 3.581E+01	 4.782E-02	-2.466E-02	-1.764E-01	 1.041E-01	-2.532E+01	 5.531E-01	-1.283E+01	 7.843E+00	-8.592E-01	 6.266E+02	 1.247E+03
  12.740	 1.890E+02	-3.094E-01	-5.018E+00	 3.111E+01	 1.731E-01	-2.816E-02	 3.653E+01	 2.103E+01	 3.518E+01	 4.768E-02	-2.478E-02	-1.303E-01	 1.078E-01	-2.531E+01	 2.704E-01	-1.493E+01	 8.234E+00	-1.526E+00	 6.339E+02	 1.246E+03
  12.760	 1.956E+02	-4.019E-01	-4.223E+00	 3.541E+01	 1.696E-01	-2.840E-02	 3.815E+01	 2.162E+01	 3.504E+01	 4.750E-02	-2.486E-02	-3.591E-02	 7.124E-02	-2.531E+01	 2.019E-03	-1.100E+01	 8.047E+00	-1.779E+00	 6.397E+02	 1.241E+03
  12.780	 2.021E+02	-4.813E-01	-3.802E+00	 1.014E+01	 1.690E-01	-2.870E-02	 4.004E+01	 2.216E+01	 3.616E+01	 4.729E-02	-2.490E-02	 1.538E-02	 4.473E-02	-2.531E+01	-1.646E-01	-6.207E+00	 8.092E+00	-1.864E+00	 6.410E+02	 1.231E+03
  12.800	 2.086E+02	-5.555E-01	-3.602E+00	 1.295E+01	 1.717E-01	-2.982E-02	 4.010E+01	 2.448E+01	 3.763E+01	 4.710E-02	-2.493E-02	-9.189E-03	 7.126E-02	-2.532E+01	-2.799E-01	-6.204E+00	 8.559E+00	-2.198E+00	 6.370E+02	 1.217E+03
  12.820	 2.151E+02	-6.246E-01	-3.312E+00	 1.325E+01	 1.768E-01	-3.165E-02	 3.892E+01	 2.790E+01	 3.839E+01	 4.689E-02	-2.493E-02	-6.109E-02	 1.317E-01	-2.532E+01	-4.386E-01	-9.978E+00	 9.320E+00	-2.729E+00	 6.305E+02	 1.205E+03
  12.840	 2.216E+02	-6.888E-01	-3.140E+00	 4.294E+00	 1.821E-01	-3.356E-02	 3.822E+01	 3.109E+01	 3.807E+01	 4.667E-02	-2.487E-02	-6.602E-02	 1.662E-01	-2.534E+01	-6.754E-01	-1.325E+01	 1.036E+01	-3.097E+00	 6.257E+02	 1.199E+03
  12.860	 2.281E+02	-7.509E-01	-3.065E+00	 5.476E+00	 1.856E-01	-3.507E-02	 3.888E+01	 3.333E+01	 3.728E+01	 4.642E-02	-2.476E-02	-2.774E-03	 1.406E-01	-2.535E+01	-9.423E-01	-1.270E+01	 1.143E+01	-3.095E+00	 6.243E+02	 1.198E+03
  12.880	 2.347E+02	-8.105E-01	-2.866E+00	 1.478E+01	 1.872E-01	-3.601E-02	 4.046E+01	 3.449E+01	 3.690E+01	 4.616E-02	-2.458E-02	 7.871E-02	 7.479E-02	-2.537E+01	-1.157E+00	-8.358E+00	 1.220E+01	-2.777E+00	 6.239E+02	 1.197E+03
  12.900	 2.412E+02	-8.643E-01	-2.477E+00	 2.383E+01	 1.883E-01	-3.653E-02	 4.184E+01	 3.503E+01	 3.727E+01	 4.594E-02	-2.438E-02	 1.139E-01	 1.628E-02	-2.540E+01	-1.268E+00	-2.714E+00	 1.263E+01	-2.307E+00	 6.203E+02	 1.190E+03
  12.920	 2.477E+02	-9.085E-01	-1.924E+00	 3.123E+01	 1.902E-01	-3.690E-02	 4.224E+01	 3.553E+01	 3.801E+01	 4.577E-02	-2.417E-02	 8.662E-02	-2.072E-03	-2.542E+01	-1.274E+00	 1.807E+00	 1.290E+01	-1.837E+00	 6.112E+02	 1.179E+03
  12.940	 2.542E+02	-9.404E-01	-1.242E+00	 3.652E+01	 1.927E-01	-3.731E-02	 4.187E+01	 3.627E+01	 3.850E+01	 4.562E-02	-2.396E-02	 3.649E-02	 1.323E-02	-2.545E+01	-1.208E+00	 4.498E+00	 1.318E+01	-1.420E+00	 5.986E+02	 1.168E+03
  12.960	 2.607E+02	-9.577E-01	-4.848E-01	 3.870E+01	 1.949E-01	-3.778E-02	 4.141E+01	 3.709E+01	 3.845E+01	 4.549E-02	-2.374E-02	 1.456E-02	 2.797E-02	-2.547E+01	-1.100E+00	 6.279E+00	 1.350E+01	-1.006E+00	 5.865E+02	 1.164E+03
  12.980	 2.672E+02	-9.596E-01	 2.973E-01	 3.947E+01	 1.958E-01	-3.816E-02	 4.133E+01	 3.764E+01	 3.808E+01	 4.537E-02	-2.351E-02	 3.635E-02	 1.379E-02	-2.549E+01	-9.546E-01	 8.398E+00	 1.372E+01	-5.454E-01	 5.784E+02	 1.165E+03
  13.000	 2.738E+02	-9.457E-01	 1.093E+00	 4.001E+01	 1.951E-01	-3.821E-02	 4.147E+01	 3.756E+01	 3.777E+01	 4.527E-02	-2.328E-02	 7.427E-02	-2.857E-02	-2.551E+01	-7.604E-01	 1.105E+01	 1.368E+01	-6.275E-02	 5.746E+02	 1.169E+03
  13.020	 2.803E+02	-9.159E-01	 1.890E+00	 3.945E+01	 1.930E-01	-3.772E-02	 4.137E+01	 3.665E+01	 3.771E+01	 4.519E-02	-2.306E-02	 8.885E-02	-7.491E-02	-2.552E+01	-5.153E-01	 1.327E+01	 1.333E+01	 3.667E-01	 5.726E+02	 1.172E+03
  13.040	 2.868E+02	-8.703E-01	 2.658E+00	 3.705E+01	 1.901E-01	-3.668E-02	 4.078E+01	 3.504E+01	 3.776E+01	 4.515E-02	-2.287E-02	 6.536E-02	-1.012E-01	-2.553E+01	-2.402E-01	 1.392E+01	 1.275E+01	 6.888E-01	 5.697E+02	 1.171E+03
  13.060	 2.933E+02	-8.100E-01	 3.365E+00	 3.336E+01	 1.865E-01	-3.531E-02	 3.986E+01	 3.310E+01	 3.768E+01	 4.513E-02	-2.272E-02	 2.173E-02	-1.013E-01	-2.553E+01	 2.913E-02	 1.275E+01	 1.212E+01	 9.083E-01	 5.650E+02	 1.168E+03
  13.080	 2.998E+02	-7.363E-01	 3.984E+00	 2.842E+01	 1.823E-01	-3.394E-02	 3.900E+01	 3.132E+01	 3.743E+01	 4.512E-02	-2.261E-02	-1.077E-02	-8.913E-02	-2.553E+01	 2.629E-01	 1.058E+01	 1.158E+01	 1.081E+00	 5.597E+02	 1.167E+03
  13.100	 3.064E+02	-6.513E-01	 4.501E+00	 2.326E+01	 1.779E-01	-3.282E-02	 3.844E+01	 2.989E+01	 3.714E+01	 4.511E-02	-2.253E-02	-1.693E-02	-8.170E-02	-2.552E+01	 4.535E-01	 8.581E+00	 1.114E+01	 1.254E+00	 5.559E+02	 1.168E+03
  13.120	 3.129E+02	-5.570E-01	 4.910E+00	 1.752E+01	 1.740E-01	-3.198E-02	 3.818E+01	 2.870E+01	 3.700E+01	 4.509E-02	-2.249E-02	-5.166E-03	-8.605E-02	-2.551E+01	 6.108E-01	 7.248E+00	 1.073E+01	 1.414E+00	 5.549E+02	 1.170E+03
  13.140	 3.194E+02	-4.557E-01	 5.195E+00	 1.081E+01	 1.713E-01	-3.124E-02	 3.802E+01	 2.739E+01	 3.704E+01	 4.507E-02	-2.248E-02	 5.269E-03	-9.661E-02	-2.550E+01	 7.452E-01	 6.163E+00	 1.026E+01	 1.504E+00	 5.567E+02	 1.172E+03
  13.160	 3.259E+02	-3.501E-01	 5.338E+00	 3.403E+00	 1.702E-01	-3.042E-02	 3.789E+01	 2.569E+01	 3.717E+01	 4.506E-02	-2.251E-02	 2.980E-03	-1.026E-01	-2.548E+01	 8.540E-01	 4.593E+00	 9.699E+00	 1.469E+00	 5.601E+02	 1.172E+03
  13.180	 3.324E+02	-2.432E-01	 5.331E+00	-3.921E+00	 1.706E-01	-2.948E-02	 3.784E+01	 2.363E+01	 3.726E+01	 4.504E-02	-2.258E-02	-7.780E-03	-9.766E-02	-2.546E+01	 9.241E-01	 2.327E+00	 9.100E+00	 1.299E+00	 5.638E+02	 1.171E+03
  13.200	 3.389E+02	-1.378E-01	 5.189E+00	-9.934E+00	 1.718E-01	-2.852E-02	 3.797E+01	 2.146E+01	 3.725E+01	 4.502E-02	-2.269E-02	-1.517E-02	-8.233E-02	-2.544E+01	 9.458E-01	-1.195E-01	 8.528E+00	 1.030E+00	 5.676E+02	 1.168E+03
  13.220	 3.455E+02	-3.632E-02	 4.943E+00	-1.475E+01	 1.733E-01	-2.769E-02	 3.834E+01	 1.942E+01	 3.721E+01	 4.499E-02	-2.284E-02	-1.050E-02	-6.186E-02	-2.543E+01	 9.224E-01	-2.094E+00	 8.030E+00	 6.973E-01	 5.717E+02	 1.166E+03
  13.240	 3.520E+02	 5.967E-02	 4.689E+00	-4.870E+00	 1.748E-01	-2.702E-02	 3.836E+01	 1.719E+01	 3.692E+01	 4.496E-02	-2.300E-02	-1.343E-02	-3.050E-02	-2.541E+01	 8.585E-01	-5.161E+00	 7.649E+00	 2.539E-01	 5.766E+02	 1.165E+03
  13.260	 3.585E+02	 1.528E-01	 4.646E+00	 7.453E+00	 1.771E-01	-2.601E-02	 3.740E+01	 1.430E+01	 3.627E+01	 4.493E-02	-2.318E-02	-2.160E-02	 8.129E-03	-2.539E+01	 7.081E-01	-9.624E+00	 7.550E+00	-3.779E-01	 5.828E+02	 1.164E+03
  13.280	 5.011E+00	 2.503E-01	 5.123E+00	 9.357E+00	 1.776E-01	-2.350E-02	 3.524E+01	 1.083E+01	 3.572E+01	 4.488E-02	-2.336E-02	-6.107E-02	 5.863E-02	-2.538E+01	 4.672E-01	-1.373E+01	 8.049E+00	-1.143E+00	 5.907E+02	 1.165E+03
  13.300	 1.153E+01	 3.502E-01	 4.687E+00	-4.245E+01	 1.750E-01	-2.187E-02	 3.645E+01	 8.335E+00	 3.498E+01	 4.481E-02	-2.351E-02	 7.926E-03	 4.680E-02	-2.537E+01	 1.758E-01	-1.408E+01	 8.156E+00	-1.678E+00	 5.997E+02	 1.166E+03
  13.320	 1.804E+01	 4.359E-01	 3.949E+00	-2.390E+01	 1.684E-01	-2.188E-02	 3.849E+01	 8.487E+00	 3.535E+01	 4.475E-02	-2.365E-02	 8.947E-02	 1.005E-02	-2.537E+01	-5.603E-02	-8.797E+00	 7.970E+00	-1.811E+00	 6.066E+02	 1.163E+03
  13.340	 2.455E+01	 5.117E-01	 3.680E+00	-8.868E+00	 1.624E-01	-2.217E-02	 3.953E+01	 8.609E+00	 3.673E+01	 4.472E-02	-2.378E-02	 1.038E-01	 5.266E-03	-2.537E+01	-1.912E-01	-5.547E+00	 8.192E+00	-1.963E+00	 6.087E+02	 1.157E+03
  13.360	 3.107E+01	 5.831E-01	 3.441E+00	-1.505E+01	 1.607E-01	-2.154E-02	 3.907E+01	 6.879E+00	 3.803E+01	 4.473E-02	-2.390E-02	 5.119E-02	 5.514E-02	-2.538E+01	-3.131E-01	-7.376E+00	 8.773E+00	-2.406E+00	 6.067E+02	 1.150E+03
  13.380	 3.759E+01	 6.491E-01	 3.172E+00	-9.585E+00	 1.627E-01	-1.996E-02	 3.793E+01	 3.711E+00	 3.836E+01	 4.476E-02	-2.401E-02	-1.995E-04	 1.180E-01	-2.539E+01	-5.020E-01	-1.152E+01	 9.648E+00	-2.919E+00	 6.042E+02	 1.147E+03
  13.400	 4.410E+01	 7.112E-01	 3.064E+00	-2.868E+00	 1.662E-01	-1.824E-02	 3.763E+01	 2.902E-01	 3.776E+01	 4.479E-02	-2.407E-02	 1.146E-02	 1.365E-01	-2.540E+01	-7.597E-01	-1.361E+01	 1.075E+01	-3.155E+00	 6.049E+02	 1.152E+03
  13.420	 5.062E+01	 7.717E-01	 2.970E+00	-8.237E+00	 1.698E-01	-1.720E-02	 3.875E+01	-2.162E+00	 3.703E+01	 4.483E-02	-2.407E-02	 7.809E-02	 9.689E-02	-2.542E+01	-1.017E+00	-1.148E+01	 1.174E+01	-3.018E+00	 6.088E+02	 1.160E+03
  13.440	 5.713E+01	 8.288E-01	 2.708E+00	-1.787E+01	 1.729E-01	-1.714E-02	 4.045E+01	-3.086E+00	 3.692E+01	 4.489E-02	-2.404E-02	 1.356E-01	 3.421E-02	-2.544E+01	-1.198E+00	-6.331E+00	 1.237E+01	-2.619E+00	 6.122E+02	 1.166E+03
  13.460	 6.365E+01	 8.788E-01	 2.265E+00	-2.625E+01	 1.760E-01	-1.768E-02	 4.162E+01	-3.010E+00	 3.750E+01	 4.501E-02	-2.399E-02	 1.329E-01	-4.938E-03	-2.547E+01	-1.269E+00	-9.074E-01	 1.272E+01	-2.132E+00	 6.114E+02	 1.167E+03
  13.480	 7.017E+01	 9.184E-01	 1.670E+00	-3.290E+01	 1.791E-01	-1.814E-02	 4.184E+01	-2.959E+00	 3.821E+01	 4.519E-02	-2.395E-02	 7.754E-02	-1.487E-03	-2.549E+01	-1.246E+00	 2.897E+00	 1.299E+01	-1.677E+00	 6.054E+02	 1.165E+03
  13.500	 7.669E+01	 9.449E-01	 9.661E-01	-3.698E+01	 1.817E-01	-1.810E-02	 4.157E+01	-3.515E+00	 3.850E+01	 4.539E-02	-2.390E-02	 2.034E-02	 2.423E-02	-2.551E+01	-1.164E+00	 5.098E+00	 1.330E+01	-1.262E+00	 5.972E+02	 1.166E+03
  13.520	 8.321E+01	 9.567E-01	 2.089E-01	-3.845E+01	 1.828E-01	-1.764E-02	 4.145E+01	-4.492E+00	 3.829E+01	 4.560E-02	-2.384E-02	 2.903E-03	 3.612E-02	-2.554E+01	-1.044E+00	 6.924E+00	 1.360E+01	-8.250E-01	 5.911E+02	 1.174E+03
  13.540	 8.972E+01	 9.531E-01	-5.678E-01	-3.921E+01	 1.822E-01	-1.714E-02	 4.169E+01	-5.199E+00	 3.791E+01	 4.582E-02	-2.377E-02	 2.297E-02	 1.549E-02	-2.556E+01	-8.830E-01	 9.337E+00	 1.375E+01	-3.415E-01	 5.893E+02	 1.186E+03
  13.560	 9.624E+01	 9.339E-01	-1.358E+00	-3.960E+01	 1.805E-01	-1.703E-02	 4.200E+01	-5.007E+00	 3.770E+01	 4.604E-02	-2.370E-02	 4.384E-02	-2.604E-02	-2.557E+01	-6.690E-01	 1.202E+01	 1.359E+01	 1.368E-01	 5.908E+02	 1.199E+03
  13.580	 1.028E+02	 8.989E-01	-2.142E+00	-3.849E+01	 1.786E-01	-1.744E-02	 4.195E+01	-3.798E+00	 3.770E+01	 4.628E-02	-2.364E-02	 3.255E-02	-6.153E-02	-2.558E+01	-4.083E-01	 1.379E+01	 1.314E+01	 5.338E-01	 5.929E+02	 1.209E+03
  13.600	 1.093E+02	 8.485E-01	-2.886E+00	-3.577E+01	 1.773E-01	-1.821E-02	 4.146E+01	-1.998E+00	 3.773E+01	 4.653E-02	-2.359E-02	-1.223E-02	-7.246E-02	-2.559E+01	-1.297E-01	 1.375E+01	 1.251E+01	 8.154E-01	 5.930E+02	 1.215E+03
  13.620	 1.158E+02	 7.839E-01	-3.562E+00	-3.153E+01	 1.767E-01	-1.903E-02	 4.080E+01	-2.143E-01	 3.758E+01	 4.678E-02	-2.358E-02	-6.387E-02	-6.149E-02	-2.559E+01	 1.305E-01	 1.207E+01	 1.190E+01	 1.009E+00	 5.912E+02	 1.219E+03
  13.640	 1.223E+02	 7.067E-01	-4.143E+00	-2.660E+01	 1.764E-01	-1.966E-02	 4.030E+01	 1.178E+00	 3.729E+01	 4.700E-02	-2.359E-02	-9.478E-02	-4.567E-02	-2.558E+01	 3.498E-01	 9.861E+00	 1.139E+01	 1.177E+00	 5.891E+02	 1.225E+03
  13.660	 1.288E+02	 6.188E-01	-4.624E+00	-2.135E+01	 1.759E-01	-2.010E-02	 4.008E+01	 2.252E+00	 3.704E+01	 4.719E-02	-2.363E-02	-9.894E-02	-3.937E-02	-2.557E+01	 5.283E-01	 8.107E+00	 1.097E+01	 1.346E+00	 5.887E+02	 1.232E+03
  13.680	 1.354E+02	 5.225E-01	-4.992E+00	-1.530E+01	 1.753E-01	-2.051E-02	 3.999E+01	 3.378E+00	 3.698E+01	 4.734E-02	-2.367E-02	-9.095E-02	-4.461E-02	-2.556E+01	 6.782E-01	 6.947E+00	 1.054E+01	 1.484E+00	 5.908E+02	 1.239E+03
  13.700	 1.419E+02	 4.200E-01	-5.230E+00	-8.349E+00	 1.746E-01	-2.109E-02	 3.986E+01	 4.896E+00	 3.708E+01	 4.745E-02	-2.374E-02	-8.886E-02	-5.269E-02	-2.555E+01	 8.058E-01	 5.742E+00	 1.004E+01	 1.528E+00	 5.947E+02	 1.243E+03
  13.720	 1.484E+02	 3.142E-01	-5.322E+00	-8.988E-01	 1.741E-01	-2.192E-02	 3.965E+01	 6.858E+00	 3.721E+01	 4.752E-02	-2.382E-02	-9.802E-02	-5.371E-02	-2.553E+01	 9.033E-01	 3.872E+00	 9.462E+00	 1.435E+00	 5.991E+02	 1.245E+03
  13.740	 1.549E+02	 2.081E-01	-5.269E+00	 6.091E+00	 1.739E-01	-2.292E-02	 3.947E+01	 9.040E+00	 3.726E+01	 4.755E-02	-2.393E-02	-1.097E-01	-4.411E-02	-2.551E+01	 9.567E-01	 1.426E+00	 8.867E+00	 1.218E+00	 6.032E+02	 1.243E+03
  13.760	 1.614E+02	 1.043E-01	-5.091E+00	 1.136E+01	 1.742E-01	-2.396E-02	 3.945E+01	 1.116E+01	 3.723E+01	 4.755E-02	-2.405E-02	-1.128E-01	-2.641E-02	-2.549E+01	 9.609E-01	-9.363E-01	 8.323E+00	 9.169E-01	 6.067E+02	 1.241E+03
  13.780	 1.679E+02	 5.093E-03	-4.819E+00	 1.536E+01	 1.751E-01	-2.496E-02	 3.961E+01	 1.310E+01	 3.722E+01	 4.749E-02	-2.419E-02	-1.010E-01	-6.659E-03	-2.547E+01	 9.235E-01	-2.657E+00	 7.860E+00	 5.602E-01	 6.102E+02	 1.238E+03
  13.800	 1.745E+02	-8.918E-02	-4.662E+00	 2.335E+00	 1.763E-01	-2.601E-02	 3.931E+01	 1.529E+01	 3.659E+01	 4.740E-02	-2.432E-02	-1.066E-01	 2.891E-02	-2.546E+01	 8.308E-01	-7.103E+00	 7.590E+00	 3.022E-02	 6.141E+02	 1.234E+03
  13.820	 1.810E+02	-1.826E-01	-4.793E+00	-3.025E+01	 1.768E-01	-2.715E-02	 3.781E+01	 1.790E+01	 3.601E+01	 4.726E-02	-2.445E-02	-1.400E-01	 7.843E-02	-2.544E+01	 6.458E-01	-1.171E+01	 7.667E+00	-6.695E-01	 6.189E+02	 1.230E+03
  13.840	 1.875E+02	-2.833E-01	-5.102E+00	 1.709E+01	 1.740E-01	-2.804E-02	 3.645E+01	 2.064E+01	 3.549E+01	 4.707E-02	-2.455E-02	-1.246E-01	 9.881E-02	-2.543E+01	 3.758E-01	-1.482E+01	 8.190E+00	-1.397E+00	 6.252E+02	 1.226E+03
  13.860	 1.940E+02	-3.789E-01	-4.377E+00	 4.100E+01	 1.701E-01	-2.837E-02	 3.756E+01	 2.162E+01	 3.496E+01	 4.683E-02	-2.460E-02	-3.098E-02	 6.846E-02	-2.543E+01	 9.201E-02	-1.238E+01	 8.078E+00	-1.757E+00	 6.310E+02	 1.221E+03
  13.880	 2.005E+02	-4.600E-01	-3.825E+00	 1.395E+01	 1.687E-01	-2.856E-02	 3.966E+01	 2.191E+01	 3.583E+01	 4.658E-02	-2.463E-02	 3.885E-02	 3.312E-02	-2.543E+01	-9.967E-02	-7.042E+00	 8.014E+00	-1.839E+00	 6.330E+02	 1.211E+03
  13.900	 2.070E+02	-5.344E-01	-3.625E+00	 1.101E+01	 1.706E-01	-2.946E-02	 4.020E+01	 2.377E+01	 3.732E+01	 4.634E-02	-2.465E-02	 3.253E-02	 4.517E-02	-2.543E+01	-2.184E-01	-5.739E+00	 8.394E+00	-2.096E+00	 6.298E+02	 1.197E+03
  13.920	 2.135E+02	-6.042E-01	-3.345E+00	 1.470E+01	 1.752E-01	-3.115E-02	 3.916E+01	 2.705E+01	 3.832E+01	 4.611E-02	-2.464E-02	-1.905E-02	 1.022E-01	-2.544E+01	-3.602E-01	-8.932E+00	 9.083E+00	-2.609E+00	 6.232E+02	 1.183E+03
  13.940	 2.201E+02	-6.687E-01	-3.131E+00	 5.969E+00	 1.807E-01	-3.310E-02	 3.822E+01	 3.038E+01	 3.825E+01	 4.588E-02	-2.460E-02	-4.023E-02	 1.481E-01	-2.544E+01	-5.797E-01	-1.274E+01	 1.007E+01	-3.046E+00	 6.177E+02	 1.176E+03
  13.960	 2.266E+02	-7.305E-01	-3.056E+00	 3.851E+00	 1.847E-01	-3.473E-02	 3.853E+01	 3.289E+01	 3.749E+01	 4.563E-02	-2.450E-02	 8.212E-03	 1.376E-01	-2.546E+01	-8.472E-01	-1.327E+01	 1.117E+01	-3.138E+00	 6.157E+02	 1.174E+03
  13.980	 2.331E+02	-7.904E-01	-2.905E+00	 1.211E+01	 1.866E-01	-3.581E-02	 3.997E+01	 3.430E+01	 3.694E+01	 4.539E-02	-2.434E-02	 9.090E-02	 7.796E-02	-2.548E+01	-1.083E+00	-9.706E+00	 1.203E+01	-2.883E+00	 6.157E+02	 1.174E+03
  14.000	 2.396E+02	-8.454E-01	-2.567E+00	 2.145E+01	 1.877E-01	-3.641E-02	 4.150E+01	 3.493E+01	 3.713E+01	 4.518E-02	-2.415E-02	 1.402E-01	 1.391E-02	-2.550E+01	-1.222E+00	-4.132E+00	 1.253E+01	-2.432E+00	 6.136E+02	 1.169E+03
  14.020	 2.461E+02	-8.919E-01	-2.057E+00	 2.922E+01	 1.894E-01	-3.679E-02	 4.216E+01	 3.539E+01	 3.784E+01	 4.502E-02	-2.396E-02	 1.247E-01	-1.459E-02	-2.553E+01	-1.253E+00	 8.020E-01	 1.283E+01	-1.950E+00	 6.065E+02	 1.160E+03
  14.040	 2.526E+02	-9.267E-01	-1.409E+00	 3.515E+01	 1.918E-01	-3.718E-02	 4.192E+01	 3.607E+01	 3.843E+01	 4.492E-02	-2.377E-02	 7.307E-02	-4.021E-03	-2.555E+01	-1.202E+00	 3.906E+00	 1.310E+01	-1.518E+00	 5.951E+02	 1.150E+03
  14.060	 2.592E+02	-9.476E-01	-6.718E-01	 3.804E+01	 1.942E-01	-3.764E-02	 4.143E+01	 3.689E+01	 3.851E+01	 4.484E-02	-2.358E-02	 3.858E-02	 1.539E-02	-2.557E+01	-1.105E+00	 5.787E+00	 1.342E+01	-1.106E+00	 5.834E+02	 1.146E+03
  14.080	 2.657E+02	-9.534E-01	 9.919E-02	 3.895E+01	 1.955E-01	-3.806E-02	 4.126E+01	 3.755E+01	 3.818E+01	 4.478E-02	-2.339E-02	 4.800E-02	 1.077E-02	-2.559E+01	-9.702E-01	 7.760E+00	 1.367E+01	-6.535E-01	 5.751E+02	 1.148E+03
  14.100	 2.722E+02	-9.436E-01	 8.851E-01	 3.960E+01	 1.952E-01	-3.822E-02	 4.139E+01	 3.765E+01	 3.783E+01	 4.475E-02	-2.319E-02	 8.273E-02	-2.495E-02	-2.561E+01	-7.898E-01	 1.035E+01	 1.371E+01	-1.664E-01	 5.715E+02	 1.154E+03
  14.120	 2.787E+02	-9.179E-01	 1.678E+00	 3.944E+01	 1.935E-01	-3.788E-02	 4.139E+01	 3.695E+01	 3.771E+01	 4.474E-02	-2.301E-02	 1.025E-01	-7.146E-02	-2.563E+01	-5.570E-01	 1.281E+01	 1.344E+01	 2.864E-01	 5.705E+02	 1.159E+03
  14.140	 2.852E+02	-8.766E-01	 2.451E+00	 3.752E+01	 1.908E-01	-3.697E-02	 4.093E+01	 3.548E+01	 3.776E+01	 4.477E-02	-2.285E-02	 8.439E-02	-1.024E-01	-2.563E+01	-2.866E-01	 1.393E+01	 1.290E+01	 6.395E-01	 5.693E+02	 1.162E+03
  14.160	 2.918E+02	-8.203E-01	 3.169E+00	 3.415E+01	 1.874E-01	-3.566E-02	 4.008E+01	 3.359E+01	 3.772E+01	 4.484E-02	-2.273E-02	 3.949E-02	-1.066E-01	-2.564E+01	-1.255E-02	 1.318E+01	 1.226E+01	 8.828E-01	 5.662E+02	 1.162E+03
  14.180	 2.983E+02	-7.504E-01	 3.807E+00	 2.945E+01	 1.833E-01	-3.426E-02	 3.918E+01	 3.173E+01	 3.751E+01	 4.492E-02	-2.266E-02	-1.545E-03	-9.393E-02	-2.564E+01	 2.319E-01	 1.116E+01	 1.169E+01	 1.062E+00	 5.622E+02	 1.163E+03
  14.200	 3.048E+02	-6.687E-01	 4.346E+00	 2.438E+01	 1.790E-01	-3.307E-02	 3.855E+01	 3.021E+01	 3.721E+01	 4.501E-02	-2.262E-02	-1.776E-02	-8.234E-02	-2.563E+01	 4.332E-01	 9.047E+00	 1.122E+01	 1.234E+00	 5.591E+02	 1.166E+03
  14.220	 3.113E+02	-5.772E-01	 4.779E+00	 1.888E+01	 1.749E-01	-3.217E-02	 3.824E+01	 2.898E+01	 3.702E+01	 4.508E-02	-2.261E-02	-1.224E-02	-8.210E-02	-2.562E+01	 5.982E-01	 7.566E+00	 1.081E+01	 1.400E+00	 5.588E+02	 1.171E+03
  14.240	 3.178E+02	-4.783E-01	 5.094E+00	 1.245E+01	 1.719E-01	-3.143E-02	 3.808E+01	 2.773E+01	 3.702E+01	 4.515E-02	-2.264E-02	-3.279E-03	-9.034E-02	-2.560E+01	 7.387E-01	 6.493E+00	 1.035E+01	 1.511E+00	 5.613E+02	 1.176E+03
  14.260	 3.244E+02	-3.744E-01	 5.272E+00	 5.212E+00	 1.704E-01	-3.065E-02	 3.796E+01	 2.614E+01	 3.715E+01	 4.522E-02	-2.270E-02	-5.501E-03	-9.663E-02	-2.559E+01	 8.557E-01	 5.092E+00	 9.814E+00	 1.507E+00	 5.656E+02	 1.179E+03
  14.280	 3.309E+02	-2.684E-01	 5.302E+00	-2.185E+00	 1.705E-01	-2.973E-02	 3.788E+01	 2.415E+01	 3.725E+01	 4.529E-02	-2.281E-02	-1.824E-02	-9.292E-02	-2.557E+01	 9.374E-01	 2.968E+00	 9.218E+00	 1.365E+00	 5.704E+02	 1.180E+03
  14.300	 3.374E+02	-1.633E-01	 5.191E+00	-8.617E+00	 1.716E-01	-2.876E-02	 3.797E+01	 2.197E+01	 3.727E+01	 4.535E-02	-2.295E-02	-3.018E-02	-7.831E-02	-2.555E+01	 9.720E-01	 4.918E-01	 8.633E+00	 1.113E+00	 5.753E+02	 1.180E+03
  14.320	 3.439E+02	-6.150E-02	 4.969E+00	-1.347E+01	 1.731E-01	-2.790E-02	 3.828E+01	 1.989E+01	 3.723E+01	 4.540E-02	-2.312E-02	-3.171E-02	-5.702E-02	-2.553E+01	 9.593E-01	-1.668E+00	 8.115E+00	 7.894E-01	 5.802E+02	 1.180E+03
  14.340	 3.504E+02	 3.496E-02	 4.683E+00	-9.728E+00	 1.746E-01	-2.718E-02	 3.854E+01	 1.784E+01	 3.712E+01	 4.544E-02	-2.331E-02	-2.964E-02	-2.994E-02	-2.551E+01	 9.086E-01	-3.880E+00	 7.686E+00	 3.901E-01	 5.857E+02	 1.180E+03
  14.360	 3.569E+02	 1.276E-01	 4.598E+00	-2.631E+00	 1.768E-01	-2.643E-02	 3.800E+01	 1.503E+01	 3.639E+01	 4.546E-02	-2.352E-02	-3.401E-02	 7.210E-03	-2.550E+01	 7.809E-01	-8.578E+00	 7.525E+00	-2.087E-01	 5.923E+02	 1.181E+03
  14.380	 3.454E+00	 2.222E-01	 4.992E+00	 2.693E+01	 1.778E-01	-2.417E-02	 3.541E+01	 1.162E+01	 3.577E+01	 4.547E-02	-2.371E-02	-9.173E-02	 6.804E-02	-2.548E+01	 5.617E-01	-1.323E+01	 7.879E+00	-9.663E-01	 6.002E+02	 1.182E+03
  14.400	 9.969E+00	 3.228E-01	 4.848E+00	-3.644E+01	 1.764E-01	-2.212E-02	 3.606E+01	 8.659E+00	 3.511E+01	 4.544E-02	-2.389E-02	-3.957E-02	 6.735E-02	-2.547E+01	 2.747E-01	-1.476E+01	 8.172E+00	-1.595E+00	 6.096E+02	 1.184E+03
  14.420	 1.648E+01	 4.116E-01	 4.054E+00	-3.139E+01	 1.705E-01	-2.182E-02	 3.812E+01	 8.321E+00	 3.514E+01	 4.540E-02	-2.404E-02	 4.757E-02	 3.186E-02	-2.547E+01	 1.812E-02	-1.021E+01	 7.972E+00	-1.802E+00	 6.175E+02	 1.183E+03
  14.440	 2.300E+01	 4.883E-01	 3.697E+00	-9.029E+00	 1.639E-01	-2.219E-02	 3.949E+01	 8.720E+00	 3.636E+01	 4.538E-02	-2.418E-02	 8.130E-02	 1.479E-02	-2.547E+01	-1.365E-01	-5.912E+00	 8.082E+00	-1.906E+00	 6.210E+02	 1.178E+03
  14.460	 2.951E+01	 5.604E-01	 3.489E+00	-1.373E+01	 1.610E-01	-2.183E-02	 3.938E+01	 7.464E+00	 3.779E+01	 4.538E-02	-2.431E-02	 4.075E-02	 5.278E-02	-2.548E+01	-2.532E-01	-6.603E+00	 8.593E+00	-2.282E+00	 6.197E+02	 1.170E+03
  14.480	 3.603E+01	 6.273E-01	 3.206E+00	-1.176E+01	 1.623E-01	-2.043E-02	 3.827E+01	 4.552E+00	 3.840E+01	 4.541E-02	-2.441E-02	-1.783E-02	 1.181E-01	-2.548E+01	-4.232E-01	-1.059E+01	 9.398E+00	-2.813E+00	 6.166E+02	 1.166E+03
  14.500	 4.254E+01	 6.897E-01	 3.067E+00	-3.143E+00	 1.656E-01	-1.865E-02	 3.765E+01	 1.075E+00	 3.797E+01	 4.542E-02	-2.447E-02	-2.330E-02	 1.504E-01	-2.549E+01	-6.695E-01	-1.352E+01	 1.047E+01	-3.136E+00	 6.160E+02	 1.169E+03
  14.520	 4.906E+01	 7.504E-01	 2.998E+00	-5.845E+00	 1.692E-01	-1.739E-02	 3.845E+01	-1.706E+00	 3.718E+01	 4.544E-02	-2.448E-02	 3.554E-02	 1.224E-01	-2.551E+01	-9.362E-01	-1.242E+01	 1.152E+01	-3.082E+00	 6.188E+02	 1.176E+03
  14.540	 5.558E+01	 8.086E-01	 2.789E+00	-1.531E+01	 1.724E-01	-1.710E-02	 4.012E+01	-2.996E+00	 3.689E+01	 4.546E-02	-2.443E-02	 1.030E-01	 5.973E-02	-2.553E+01	-1.142E+00	-7.767E+00	 1.225E+01	-2.729E+00	 6.221E+02	 1.182E+03
  14.560	 6.209E+01	 8.607E-01	 2.392E+00	-2.409E+01	 1.754E-01	-1.755E-02	 4.149E+01	-3.075E+00	 3.734E+01	 4.552E-02	-2.436E-02	 1.186E-01	 1.039E-02	-2.556E+01	-1.241E+00	-2.166E+00	 1.266E+01	-2.245E+00	 6.217E+02	 1.182E+03
  14.580	 6.861E+01	 9.032E-01	 1.836E+00	-3.126E+01	 1.786E-01	-1.808E-02	 4.192E+01	-2.936E+00	 3.808E+01	 4.563E-02	-2.429E-02	 7.452E-02	 2.726E-03	-2.558E+01	-1.238E+00	 2.120E+00	 1.293E+01	-1.774E+00	 6.160E+02	 1.179E+03
  14.600	 7.513E+01	 9.333E-01	 1.156E+00	-3.616E+01	 1.814E-01	-1.818E-02	 4.170E+01	-3.329E+00	 3.850E+01	 4.577E-02	-2.421E-02	 1.516E-02	 2.501E-02	-2.560E+01	-1.168E+00	 4.643E+00	 1.323E+01	-1.351E+00	 6.070E+02	 1.177E+03
  14.620	 8.165E+01	 9.490E-01	 4.092E-01	-3.815E+01	 1.829E-01	-1.779E-02	 4.149E+01	-4.251E+00	 3.839E+01	 4.592E-02	-2.412E-02	-1.111E-02	 4.175E-02	-2.563E+01	-1.057E+00	 6.451E+00	 1.354E+01	-9.230E-01	 5.990E+02	 1.181E+03
  14.640	 8.817E+01	 9.495E-01	-3.625E-01	-3.899E+01	 1.827E-01	-1.726E-02	 4.165E+01	-5.090E+00	 3.801E+01	 4.606E-02	-2.402E-02	 5.083E-03	 2.762E-02	-2.565E+01	-9.066E-01	 8.706E+00	 1.374E+01	-4.476E-01	 5.950E+02	 1.191E+03
  14.660	 9.469E+01	 9.344E-01	-1.149E+00	-3.959E+01	 1.811E-01	-1.703E-02	 4.197E+01	-5.150E+00	 3.774E+01	 4.621E-02	-2.391E-02	 3.253E-02	-1.265E-02	-2.566E+01	-7.054E-01	 1.142E+01	 1.366E+01	 3.944E-02	 5.948E+02	 1.202E+03
  14.680	 1.012E+02	 9.035E-01	-1.938E+00	-3.893E+01	 1.792E-01	-1.732E-02	 4.203E+01	-4.164E+00	 3.771E+01	 4.637E-02	-2.380E-02	 3.371E-02	-5.351E-02	-2.567E+01	-4.539E-01	 1.352E+01	 1.327E+01	 4.612E-01	 5.958E+02	 1.210E+03
  14.700	 1.077E+02	 8.571E-01	-2.694E+00	-3.648E+01	 1.777E-01	-1.802E-02	 4.164E+01	-2.449E+00	 3.775E+01	 4.654E-02	-2.371E-02	-1.271E-03	-7.267E-02	-2.568E+01	-1.758E-01	 1.396E+01	 1.267E+01	 7.704E-01	 5.954E+02	 1.214E+03
  14.720	 1.142E+02	 7.962E-01	-3.388E+00	-3.268E+01	 1.769E-01	-1.885E-02	 4.098E+01	-6.097E-01	 3.765E+01	 4.671E-02	-2.365E-02	-5.115E-02	-6.714E-02	-2.568E+01	 9.226E-02	 1.260E+01	 1.203E+01	 9.792E-01	 5.928E+02	 1.217E+03
  14.740	 1.208E+02	 7.222E-01	-3.993E+00	-2.777E+01	 1.765E-01	-1.954E-02	 4.041E+01	 8.919E-01	 3.739E+01	 4.685E-02	-2.362E-02	-8.554E-02	-5.224E-02	-2.568E+01	 3.227E-01	 1.041E+01	 1.149E+01	 1.148E+00	 5.895E+02	 1.219E+03
  14.760	 1.273E+02	 6.371E-01	-4.497E+00	-2.263E+01	 1.761E-01	-2.002E-02	 4.012E+01	 2.019E+00	 3.712E+01	 4.697E-02	-2.361E-02	-9.251E-02	-4.422E-02	-2.567E+01	 5.106E-01	 8.488E+00	 1.106E+01	 1.316E+00	 5.875E+02	 1.224E+03
  14.780	 1.338E+02	 5.430E-01	-4.894E+00	-1.682E+01	 1.755E-01	-2.041E-02	 4.001E+01	 3.097E+00	 3.700E+01	 4.705E-02	-2.362E-02	-8.280E-02	-4.843E-02	-2.566E+01	 6.668E-01	 7.218E+00	 1.064E+01	 1.466E+00	 5.880E+02	 1.229E+03
  14.800	 1.403E+02	 4.422E-01	-5.164E+00	-1.006E+01	 1.748E-01	-2.094E-02	 3.990E+01	 4.504E+00	 3.707E+01	 4.710E-02	-2.364E-02	-7.541E-02	-5.803E-02	-2.564E+01	 8.003E-01	 6.093E+00	 1.016E+01	 1.536E+00	 5.906E+02	 1.232E+03
  14.820	 1.468E+02	 3.374E-01	-5.291E+00	-2.651E+00	 1.742E-01	-2.171E-02	 3.969E+01	 6.372E+00	 3.720E+01	 4.711E-02	-2.369E-02	-7.968E-02	-6.248E-02	-2.563E+01	 9.066E-01	 4.405E+00	 9.590E+00	 1.476E+00	 5.942E+02	 1.232E+03
  14.840	 1.533E+02	 2.316E-01	-5.271E+00	 4.560E+00	 1.739E-01	-2.268E-02	 3.948E+01	 8.528E+00	 3.728E+01	 4.709E-02	-2.377E-02	-8.967E-02	-5.632E-02	-2.561E+01	 9.719E-01	 2.050E+00	 8.992E+00	 1.284E+00	 5.976E+02	 1.230E+03
  14.860	 1.599E+02	 1.275E-01	-5.119E+00	 1.031E+01	 1.741E-01	-2.372E-02	 3.941E+01	 1.068E+01	 3.727E+01	 4.704E-02	-2.386E-02	-9.369E-02	-4.092E-02	-2.559E+01	 9.880E-01	-3.920E-01	 8.430E+00	 9.989E-01	 6.006E+02	 1.226E+03
  14.880	 1.664E+02	 2.749E-02	-4.865E+00	 1.477E+01	 1.748E-01	-2.472E-02	 3.953E+01	 1.266E+01	 3.724E+01	 4.695E-02	-2.397E-02	-8.410E-02	-2.175E-02	-2.557E+01	 9.597E-01	-2.304E+00	 7.945E+00	 6.541E-01	 6.036E+02	 1.222E+03
  14.900	 1.729E+02	-6.715E-02	-4.644E+00	 3.188E+00	 1.760E-01	-2.573E-02	 3.939E+01	 1.474E+01	 3.682E+01	 4.683E-02	-2.410E-02	-8.505E-02	 9.891E-03	-2.555E+01	 8.870E-01	-5.871E+00	 7.601E+00	 1.785E-01	 6.069E+02	 1.217E+03
  14.920	 1.794E+02	-1.596E-01	-4.647E+00	-1.591E+01	 1.767E-01	-2.688E-02	 3.839E+01	 1.722E+01	 3.622E+01	 4.667E-02	-2.421E-02	-9.656E-02	 4.962E-02	-2.553E+01	 7.245E-01	-1.033E+01	 7.553E+00	-4.786E-01	 6.113E+02	 1.213E+03
  14.940	 1.859E+02	-2.578E-01	-5.111E+00	-4.184E-01	 1.748E-01	-2.787E-02	 3.652E+01	 2.008E+01	 3.568E+01	 4.648E-02	-2.431E-02	-1.161E-01	 8.938E-02	-2.552E+01	 4.719E-01	-1.429E+01	 8.095E+00	-1.242E+00	 6.171E+02	 1.209E+03
  14.960	 1.924E+02	-3.559E-01	-4.551E+00	 4.296E+01	 1.708E-01	-2.833E-02	 3.703E+01	 2.157E+01	 3.498E+01	 4.624E-02	-2.437E-02	-3.149E-02	 6.783E-02	-2.551E+01	 1.802E-01	-1.359E+01	 8.115E+00	-1.717E+00	 6.232E+02	 1.204E+03
  14.980	 1.990E+02	-4.393E-01	-3.876E+00	 1.973E+01	 1.686E-01	-2.847E-02	 3.916E+01	 2.176E+01	 3.554E+01	 4.599E-02	-2.441E-02	 5.167E-02	 2.798E-02	-2.551E+01	-3.814E-02	-8.153E+00	 7.967E+00	-1.824E+00	 6.266E+02	 1.195E+03
  15.000	 2.055E+02	-5.142E-01	-3.644E+00	 9.310E+00	 1.697E-01	-2.914E-02	 4.020E+01	 2.315E+01	 3.698E+01	 4.575E-02	-2.443E-02	 6.368E-02	 2.629E-02	-2.551E+01	-1.667E-01	-5.574E+00	 8.251E+00	-2.010E+00	 6.248E+02	 1.182E+03
  15.020	 2.120E+02	-5.847E-01	-3.389E+00	 1.516E+01	 1.737E-01	-3.067E-02	 3.942E+01	 2.620E+01	 3.818E+01	 4.554E-02	-2.444E-02	 1.588E-02	 7.686E-02	-2.552E+01	-2.953E-01	-7.939E+00	 8.871E+00	-2.482E+00	 6.191E+02	 1.169E+03
  15.040	 2.185E+02	-6.497E-01	-3.138E+00	 8.165E+00	 1.792E-01	-3.261E-02	 3.830E+01	 2.963E+01	 3.837E+01	 4.534E-02	-2.442E-02	-2.009E-02	 1.319E-01	-2.553E+01	-4.960E-01	-1.203E+01	 9.787E+00	-2.973E+00	 6.134E+02	 1.160E+03
  15.060	 2.250E+02	-7.114E-01	-3.047E+00	 2.953E+00	 1.837E-01	-3.436E-02	 3.827E+01	 3.238E+01	 3.770E+01	 4.513E-02	-2.435E-02	 1.027E-02	 1.374E-01	-2.554E+01	-7.589E-01	-1.359E+01	 1.089E+01	-3.157E+00	 6.111E+02	 1.159E+03
  15.080	 2.315E+02	-7.715E-01	-2.936E+00	 9.533E+00	 1.861E-01	-3.557E-02	 3.951E+01	 3.405E+01	 3.702E+01	 4.493E-02	-2.423E-02	 8.873E-02	 8.721E-02	-2.556E+01	-1.010E+00	-1.092E+01	 1.184E+01	-2.975E+00	 6.116E+02	 1.160E+03
  15.100	 2.381E+02	-8.276E-01	-2.649E+00	 1.905E+01	 1.873E-01	-3.627E-02	 4.113E+01	 3.481E+01	 3.702E+01	 4.476E-02	-2.407E-02	 1.490E-01	 2.058E-02	-2.558E+01	-1.178E+00	-5.580E+00	 1.243E+01	-2.554E+00	 6.111E+02	 1.158E+03
  15.120	 2.446E+02	-8.762E-01	-2.184E+00	 2.716E+01	 1.887E-01	-3.669E-02	 4.206E+01	 3.527E+01	 3.766E+01	 4.465E-02	-2.391E-02	 1.465E-01	-1.758E-02	-2.560E+01	-1.234E+00	-3.084E-01	 1.276E+01	-2.066E+00	 6.061E+02	 1.152E+03
  15.140	 2.511E+02	-9.140E-01	-1.573E+00	 3.362E+01	 1.911E-01	-3.706E-02	 4.200E+01	 3.588E+01	 3.833E+01	 4.459E-02	-2.374E-02	 9.647E-02	-1.358E-02	-2.563E+01	-1.202E+00	 3.247E+00	 1.302E+01	-1.617E+00	 5.964E+02	 1.143E+03
  15.160	 2.576E+02	-9.384E-01	-8.581E-01	 3.729E+01	 1.936E-01	-3.751E-02	 4.151E+01	 3.670E+01	 3.854E+01	 4.458E-02	-2.359E-02	 5.117E-02	 8.347E-03	-2.565E+01	-1.115E+00	 5.317E+00	 1.334E+01	-1.202E+00	 5.852E+02	 1.139E+03
  15.180	 2.641E+02	-9.481E-01	-9.840E-02	 3.848E+01	 1.953E-01	-3.797E-02	 4.125E+01	 3.743E+01	 3.828E+01	 4.458E-02	-2.343E-02	 4.721E-02	 1.267E-02	-2.567E+01	-9.903E-01	 7.184E+00	 1.362E+01	-7.587E-01	 5.768E+02	 1.142E+03
  15.200	 2.706E+02	-9.423E-01	 6.787E-01	 3.922E+01	 1.954E-01	-3.822E-02	 4.134E+01	 3.770E+01	 3.790E+01	 4.461E-02	-2.327E-02	 7.639E-02	-1.531E-02	-2.569E+01	-8.228E-01	 9.668E+00	 1.373E+01	-2.716E-01	 5.731E+02	 1.150E+03
  15.220	 2.772E+02	-9.208E-01	 1.467E+00	 3.941E+01	 1.939E-01	-3.801E-02	 4.142E+01	 3.720E+01	 3.772E+01	 4.467E-02	-2.311E-02	 1.002E-01	-6.055E-02	-2.570E+01	-6.025E-01	 1.229E+01	 1.353E+01	 1.996E-01	 5.727E+02	 1.158E+03
  15.240	 2.837E+02	-8.837E-01	 2.244E+00	 3.800E+01	 1.915E-01	-3.724E-02	 4.110E+01	 3.590E+01	 3.775E+01	 4.476E-02	-2.298E-02	 8.875E-02	-9.582E-02	-2.571E+01	-3.386E-01	 1.384E+01	 1.304E+01	 5.821E-01	 5.727E+02	 1.163E+03
  15.260	 2.902E+02	-8.314E-01	 2.976E+00	 3.497E+01	 1.883E-01	-3.600E-02	 4.032E+01	 3.407E+01	 3.775E+01	 4.489E-02	-2.288E-02	 4.534E-02	-1.051E-01	-2.572E+01	-6.162E-02	 1.355E+01	 1.241E+01	 8.508E-01	 5.711E+02	 1.165E+03
  15.280	 2.967E+02	-7.651E-01	 3.633E+00	 3.057E+01	 1.844E-01	-3.460E-02	 3.940E+01	 3.216E+01	 3.758E+01	 4.504E-02	-2.283E-02	-1.774E-03	-9.370E-02	-2.572E+01	 1.928E-01	 1.173E+01	 1.181E+01	 1.040E+00	 5.680E+02	 1.168E+03
  15.300	 3.032E+02	-6.867E-01	 4.195E+00	 2.556E+01	 1.801E-01	-3.334E-02	 3.870E+01	 3.054E+01	 3.729E+01	 4.519E-02	-2.281E-02	-2.696E-02	-7.931E-02	-2.571E+01	 4.053E-01	 9.553E+00	 1.131E+01	 1.209E+00	 5.654E+02	 1.172E+03
  15.320	 3.098E+02	-5.980E-01	 4.654E+00	 2.024E+01	 1.759E-01	-3.238E-02	 3.833E+01	 2.927E+01	 3.706E+01	 4.533E-02	-2.283E-02	-2.752E-02	-7.500E-02	-2.570E+01	 5.787E-01	 7.909E+00	 1.089E+01	 1.379E+00	 5.651E+02	 1.178E+03
  15.340	 3.163E+02	-5.013E-01	 4.999E+00	 1.407E+01	 1.726E-01	-3.162E-02	 3.816E+01	 2.806E+01	 3.701E+01	 4.545E-02	-2.287E-02	-1.961E-02	-8.101E-02	-2.569E+01	 7.254E-01	 6.800E+00	 1.045E+01	 1.508E+00	 5.676E+02	 1.185E+03
  15.360	 3.228E+02	-3.990E-01	 5.211E+00	 7.023E+00	 1.708E-01	-3.086E-02	 3.803E+01	 2.656E+01	 3.712E+01	 4.557E-02	-2.295E-02	-2.027E-02	-8.783E-02	-2.567E+01	 8.497E-01	 5.541E+00	 9.935E+00	 1.534E+00	 5.722E+02	 1.190E+03
  15.380	 3.293E+02	-2.938E-01	 5.277E+00	-3.997E-01	 1.706E-01	-2.998E-02	 3.794E+01	 2.466E+01	 3.724E+01	 4.568E-02	-2.306E-02	-3.268E-02	-8.613E-02	-2.565E+01	 9.422E-01	 3.582E+00	 9.345E+00	 1.422E+00	 5.776E+02	 1.193E+03
  15.400	 3.358E+02	-1.888E-01	 5.199E+00	-7.183E+00	 1.715E-01	-2.901E-02	 3.799E+01	 2.250E+01	 3.728E+01	 4.578E-02	-2.321E-02	-4.696E-02	-7.332E-02	-2.563E+01	 9.895E-01	 1.119E+00	 8.751E+00	 1.189E+00	 5.829E+02	 1.193E+03
  15.420	 3.423E+02	-8.666E-02	 5.003E+00	-1.221E+01	 1.730E-01	-2.811E-02	 3.824E+01	 2.037E+01	 3.724E+01	 4.586E-02	-2.339E-02	-5.255E-02	-5.255E-02	-2.561E+01	 9.882E-01	-1.174E+00	 8.214E+00	 8.779E-01	 5.881E+02	 1.194E+03
  15.440	 3.489E+02	 1.065E-02	 4.719E+00	-1.547E+01	 1.745E-01	-2.736E-02	 3.867E+01	 1.842E+01	 3.722E+01	 4.592E-02	-2.358E-02	-4.448E-02	-2.972E-02	-2.560E+01	 9.468E-01	-2.853E+00	 7.761E+00	 5.083E-01	 5.936E+02	 1.194E+03
  15.460	 3.554E+02	 1.033E-01	 4.589E+00	-3.859E+00	 1.764E-01	-2.671E-02	 3.828E+01	 1.571E+01	 3.651E+01	 4.596E-02	-2.379E-02	-5.482E-02	 9.326E-03	-2.558E+01	 8.429E-01	-7.661E+00	 7.530E+00	-5.385E-02	 5.999E+02	 1.195E+03
  15.480	 1.899E+00	 1.958E-01	 4.813E+00	 3.451E+01	 1.780E-01	-2.485E-02	 3.588E+01	 1.247E+01	 3.591E+01	 4.597E-02	-2.400E-02	-1.073E-01	 6.830E-02	-2.556E+01	 6.464E-01	-1.233E+01	 7.698E+00	-7.791E-01	 6.073E+02	 1.196E+03
  15.500	 8.414E+00	 2.959E-01	 4.977E+00	-2.548E+01	 1.774E-01	-2.248E-02	 3.576E+01	 9.199E+00	 3.535E+01	 4.595E-02	-2.418E-02	-7.858E-02	 8.143E-02	-2.555E+01	 3.693E-01	-1.492E+01	 8.161E+00	-1.480E+00	 6.165E+02	 1.198E+03
  15.520	 1.493E+01	 3.881E-01	 4.205E+00	-3.800E+01	 1.724E-01	-2.179E-02	 3.768E+01	 8.200E+00	 3.501E+01	 4.590E-02	-2.432E-02	 9.290E-03	 5.078E-02	-2.555E+01	 9.344E-02	-1.163E+01	 8.003E+00	-1.784E+00	 6.248E+02	 1.198E+03
  15.540	 2.144E+01	 4.665E-01	 3.731E+00	-1.138E+01	 1.655E-01	-2.215E-02	 3.934E+01	 8.719E+00	 3.602E+01	 4.585E-02	-2.445E-02	 6.208E-02	 2.347E-02	-2.555E+01	-8.449E-02	-6.584E+00	 8.003E+00	-1.868E+00	 6.291E+02	 1.193E+03
  15.560	 2.796E+01	 5.392E-01	 3.538E+00	-1.185E+01	 1.615E-01	-2.204E-02	 3.960E+01	 7.943E+00	 3.750E+01	 4.582E-02	-2.457E-02	 3.820E-02	 4.737E-02	-2.555E+01	-2.016E-01	-6.023E+00	 8.436E+00	-2.168E+00	 6.283E+02	 1.184E+03
  15.580	 3.447E+01	 6.073E-01	 3.257E+00	-1.359E+01	 1.619E-01	-2.086E-02	 3.861E+01	 5.354E+00	 3.836E+01	 4.581E-02	-2.466E-02	-2.173E-02	 1.107E-01	-2.556E+01	-3.537E-01	-9.581E+00	 9.169E+00	-2.693E+00	 6.246E+02	 1.178E+03
  15.600	 4.099E+01	 6.703E-01	 3.076E+00	-4.433E+00	 1.649E-01	-1.909E-02	 3.774E+01	 1.900E+00	 3.815E+01	 4.579E-02	-2.472E-02	-4.241E-02	 1.547E-01	-2.557E+01	-5.846E-01	-1.314E+01	 1.019E+01	-3.092E+00	 6.225E+02	 1.178E+03
  15.620	 4.751E+01	 7.312E-01	 3.014E+00	-4.037E+00	 1.686E-01	-1.763E-02	 3.818E+01	-1.153E+00	 3.737E+01	 4.575E-02	-2.471E-02	 5.831E-03	 1.397E-01	-2.558E+01	-8.545E-01	-1.310E+01	 1.129E+01	-3.129E+00	 6.238E+02	 1.183E+03
  15.640	 5.402E+01	 7.901E-01	 2.852E+00	-1.283E+01	 1.718E-01	-1.710E-02	 3.974E+01	-2.823E+00	 3.691E+01	 4.572E-02	-2.465E-02	 7.967E-02	 8.006E-02	-2.560E+01	-1.082E+00	-9.117E+00	 1.211E+01	-2.833E+00	 6.266E+02	 1.188E+03
  15.660	 6.054E+01	 8.440E-01	 2.501E+00	-2.197E+01	 1.748E-01	-1.742E-02	 4.127E+01	-3.119E+00	 3.719E+01	 4.572E-02	-2.455E-02	 1.131E-01	 2.242E-02	-2.562E+01	-1.208E+00	-3.495E+00	 1.258E+01	-2.364E+00	 6.266E+02	 1.188E+03
  15.680	 6.706E+01	 8.891E-01	 1.983E+00	-2.954E+01	 1.779E-01	-1.799E-02	 4.193E+01	-2.943E+00	 3.792E+01	 4.576E-02	-2.445E-02	 8.313E-02	 3.009E-03	-2.565E+01	-1.228E+00	 1.231E+00	 1.287E+01	-1.880E+00	 6.212E+02	 1.183E+03
  15.700	 7.357E+01	 9.224E-01	 1.332E+00	-3.515E+01	 1.809E-01	-1.822E-02	 4.180E+01	-3.176E+00	 3.846E+01	 4.584E-02	-2.434E-02	 2.474E-02	 1.970E-02	-2.567E+01	-1.172E+00	 4.133E+00	 1.315E+01	-1.446E+00	 6.118E+02	 1.179E+03
  15.720	 8.009E+01	 9.418E-01	 5.979E-01	-3.776E+01	 1.828E-01	-1.792E-02	 4.153E+01	-4.006E+00	 3.847E+01	 4.592E-02	-2.423E-02	-9.877E-03	 3.981E-02	-2.569E+01	-1.070E+00	 5.994E+00	 1.347E+01	-1.024E+00	 6.023E+02	 1.180E+03
  15.740	 8.661E+01	 9.461E-01	-1.679E-01	-3.873E+01	 1.830E-01	-1.738E-02	 4.159E+01	-4.931E+00	 3.812E+01	 4.600E-02	-2.410E-02	-3.484E-05	 3.276E-02	-2.571E+01	-9.300E-01	 8.092E+00	 1.371E+01	-5.588E-01	 5.963E+02	 1.186E+03
  15.760	 9.313E+01	 9.349E-01	-9.503E-01	-3.946E+01	 1.816E-01	-1.705E-02	 4.191E+01	-5.223E+00	 3.780E+01	 4.608E-02	-2.396E-02	 3.079E-02	-4.232E-03	-2.573E+01	-7.419E-01	 1.077E+01	 1.370E+01	-6.728E-02	 5.945E+02	 1.196E+03
  15.780	 9.965E+01	 9.080E-01	-1.740E+00	-3.922E+01	 1.797E-01	-1.721E-02	 4.206E+01	-4.480E+00	 3.771E+01	 4.618E-02	-2.382E-02	 4.281E-02	-4.857E-02	-2.574E+01	-5.013E-01	 1.313E+01	 1.338E+01	 3.767E-01	 5.947E+02	 1.203E+03
  15.800	 1.062E+02	 8.655E-01	-2.506E+00	-3.712E+01	 1.780E-01	-1.783E-02	 4.176E+01	-2.889E+00	 3.776E+01	 4.629E-02	-2.369E-02	 1.778E-02	-7.511E-02	-2.575E+01	-2.266E-01	 1.403E+01	 1.281E+01	 7.140E-01	 5.940E+02	 1.207E+03
  15.820	 1.127E+02	 8.082E-01	-3.216E+00	-3.365E+01	 1.770E-01	-1.866E-02	 4.113E+01	-1.026E+00	 3.771E+01	 4.641E-02	-2.360E-02	-2.937E-02	-7.558E-02	-2.575E+01	 4.704E-02	 1.305E+01	 1.217E+01	 9.431E-01	 5.912E+02	 1.208E+03
  15.840	 1.192E+02	 7.374E-01	-3.843E+00	-2.889E+01	 1.766E-01	-1.940E-02	 4.051E+01	 5.798E-01	 3.748E+01	 4.651E-02	-2.354E-02	-6.774E-02	-6.203E-02	-2.575E+01	 2.879E-01	 1.095E+01	 1.161E+01	 1.116E+00	 5.872E+02	 1.209E+03
  15.860	 1.257E+02	 6.551E-01	-4.371E+00	-2.381E+01	 1.762E-01	-1.992E-02	 4.015E+01	 1.778E+00	 3.719E+01	 4.659E-02	-2.350E-02	-7.951E-02	-5.202E-02	-2.574E+01	 4.854E-01	 8.892E+00	 1.115E+01	 1.283E+00	 5.842E+02	 1.212E+03
  15.880	 1.322E+02	 5.633E-01	-4.792E+00	-1.823E+01	 1.756E-01	-2.031E-02	 4.000E+01	 2.832E+00	 3.703E+01	 4.664E-02	-2.349E-02	-7.073E-02	-5.410E-02	-2.573E+01	 6.481E-01	 7.487E+00	 1.073E+01	 1.442E+00	 5.836E+02	 1.216E+03
  15.900	 1.388E+02	 4.642E-01	-5.093E+00	-1.168E+01	 1.749E-01	-2.079E-02	 3.990E+01	 4.136E+00	 3.706E+01	 4.666E-02	-2.349E-02	-6.018E-02	-6.386E-02	-2.571E+01	 7.871E-01	 6.399E+00	 1.027E+01	 1.537E+00	 5.854E+02	 1.219E+03
  15.920	 1.453E+02	 3.605E-01	-5.255E+00	-4.374E+00	 1.742E-01	-2.150E-02	 3.972E+01	 5.899E+00	 3.719E+01	 4.665E-02	-2.353E-02	-6.073E-02	-7.068E-02	-2.570E+01	 9.011E-01	 4.889E+00	 9.718E+00	 1.509E+00	 5.885E+02	 1.219E+03
  15.940	 1.518E+02	 2.550E-01	-5.268E+00	 2.976E+00	 1.739E-01	-2.243E-02	 3.949E+01	 8.012E+00	 3.729E+01	 4.663E-02	-2.358E-02	-6.975E-02	-6.738E-02	-2.568E+01	 9.777E-01	 2.662E+00	 9.120E+00	 1.346E+00	 5.919E+02	 1.217E+03
  15.960	 1.583E+02	 1.507E-01	-5.143E+00	 9.190E+00	 1.739E-01	-2.346E-02	 3.938E+01	 1.019E+01	 3.729E+01	 4.657E-02	-2.367E-02	-7.566E-02	-5.394E-02	-2.566E+01	 1.006E+00	 1.765E-01	 8.543E+00	 1.078E+00	 5.949E+02	 1.213E+03
  15.980	 1.648E+02	 5.001E-02	-4.911E+00	 1.407E+01	 1.744E-01	-2.448E-02	 3.945E+01	 1.221E+01	 3.725E+01	 4.648E-02	-2.378E-02	-6.947E-02	-3.510E-02	-2.564E+01	 9.875E-01	-1.914E+00	 8.038E+00	 7.440E-01	 5.978E+02	 1.208E+03
  16.000	 1.713E+02	-4.532E-02	-4.640E+00	 6.825E+00	 1.755E-01	-2.547E-02	 3.945E+01	 1.422E+01	 3.709E+01	 4.637E-02	-2.390E-02	-6.521E-02	-8.348E-03	-2.562E+01	 9.301E-01	-4.545E+00	 7.633E+00	 3.186E-01	 6.011E+02	 1.204E+03
  16.020	 1.779E+02	-1.374E-01	-4.579E+00	-2.305E+00	 1.765E-01	-2.660E-02	 3.883E+01	 1.658E+01	 3.636E+01	 4.623E-02	-2.402E-02	-6.484E-02	 2.681E-02	-2.560E+01	 7.897E-01	-9.151E+00	 7.508E+00	-3.017E-01	 6.054E+02	 1.200E+03
  16.040	 1.844E+02	-2.327E-01	-5.034E+00	-1.825E+01	 1.756E-01	-2.766E-02	 3.675E+01	 1.941E+01	 3.577E+01	 4.606E-02	-2.414E-02	-1.087E-01	 8.038E-02	-2.559E+01	 5.578E-01	-1.358E+01	 7.952E+00	-1.069E+00	 6.111E+02	 1.196E+03
  16.060	 1.909E+02	-3.323E-01	-4.723E+00	 3.999E+01	 1.716E-01	-2.826E-02	 3.665E+01	 2.141E+01	 3.508E+01	 4.585E-02	-2.422E-02	-3.978E-02	 6.972E-02	-2.558E+01	 2.674E-01	-1.445E+01	 8.142E+00	-1.649E+00	 6.178E+02	 1.193E+03
  16.080	 1.974E+02	-4.186E-01	-3.961E+00	 2.687E+01	 1.688E-01	-2.842E-02	 3.862E+01	 2.170E+01	 3.530E+01	 4.562E-02	-2.427E-02	 5.107E-02	 2.967E-02	-2.558E+01	 2.359E-02	-9.459E+00	 7.951E+00	-1.815E+00	 6.226E+02	 1.186E+03
  16.100	 2.039E+02	-4.942E-01	-3.661E+00	 8.694E+00	 1.690E-01	-2.889E-02	 4.010E+01	 2.265E+01	 3.662E+01	 4.542E-02	-2.432E-02	 8.104E-02	 1.569E-02	-2.558E+01	-1.209E-01	-5.742E+00	 8.128E+00	-1.944E+00	 6.227E+02	 1.175E+03
  16.120	 2.104E+02	-5.654E-01	-3.437E+00	 1.450E+01	 1.724E-01	-3.023E-02	 3.968E+01	 2.538E+01	 3.797E+01	 4.524E-02	-2.435E-02	 4.105E-02	 5.685E-02	-2.558E+01	-2.412E-01	-7.073E+00	 8.680E+00	-2.358E+00	 6.182E+02	 1.162E+03
  16.140	 2.170E+02	-6.313E-01	-3.161E+00	 1.051E+01	 1.778E-01	-3.213E-02	 3.848E+01	 2.883E+01	 3.842E+01	 4.508E-02	-2.436E-02	-6.331E-03	 1.175E-01	-2.559E+01	-4.226E-01	-1.116E+01	 9.524E+00	-2.879E+00	 6.127E+02	 1.154E+03
  16.160	 2.235E+02	-6.930E-01	-3.041E+00	 2.894E+00	 1.827E-01	-3.396E-02	 3.813E+01	 3.180E+01	 3.790E+01	 4.492E-02	-2.433E-02	 4.706E-03	 1.385E-01	-2.560E+01	-6.761E-01	-1.362E+01	 1.061E+01	-3.153E+00	 6.101E+02	 1.152E+03
  16.180	 2.300E+02	-7.532E-01	-2.959E+00	 7.117E+00	 1.856E-01	-3.532E-02	 3.911E+01	 3.374E+01	 3.714E+01	 4.477E-02	-2.424E-02	 7.451E-02	 1.005E-01	-2.562E+01	-9.388E-01	-1.194E+01	 1.163E+01	-3.051E+00	 6.109E+02	 1.155E+03
  16.200	 2.365E+02	-8.103E-01	-2.723E+00	 1.660E+01	 1.869E-01	-3.613E-02	 4.075E+01	 3.468E+01	 3.695E+01	 4.464E-02	-2.411E-02	 1.428E-01	 3.422E-02	-2.564E+01	-1.132E+00	-7.013E+00	 1.231E+01	-2.671E+00	 6.118E+02	 1.156E+03
  16.220	 2.430E+02	-8.609E-01	-2.303E+00	 2.507E+01	 1.882E-01	-3.659E-02	 4.191E+01	 3.516E+01	 3.747E+01	 4.457E-02	-2.397E-02	 1.542E-01	-1.270E-02	-2.566E+01	-1.216E+00	-1.515E+00	 1.268E+01	-2.183E+00	 6.088E+02	 1.152E+03
  16.240	 2.495E+02	-9.014E-01	-1.730E+00	 3.196E+01	 1.904E-01	-3.696E-02	 4.207E+01	 3.572E+01	 3.819E+01	 4.456E-02	-2.383E-02	 1.095E-01	-1.699E-02	-2.568E+01	-1.203E+00	 2.503E+00	 1.296E+01	-1.718E+00	 6.007E+02	 1.145E+03
  16.260	 2.561E+02	-9.293E-01	-1.041E+00	 3.642E+01	 1.930E-01	-3.740E-02	 4.162E+01	 3.650E+01	 3.854E+01	 4.459E-02	-2.370E-02	 5.638E-02	 4.779E-03	-2.571E+01	-1.127E+00	 4.848E+00	 1.326E+01	-1.297E+00	 5.902E+02	 1.141E+03
  16.280	 2.626E+02	-9.427E-01	-2.935E-01	 3.805E+01	 1.950E-01	-3.787E-02	 4.128E+01	 3.729E+01	 3.837E+01	 4.464E-02	-2.357E-02	 3.936E-02	 1.666E-02	-2.573E+01	-1.012E+00	 6.667E+00	 1.357E+01	-8.617E-01	 5.816E+02	 1.144E+03
  16.300	 2.691E+02	-9.409E-01	 4.758E-01	 3.886E+01	 1.955E-01	-3.819E-02	 4.131E+01	 3.770E+01	 3.798E+01	 4.472E-02	-2.343E-02	 6.138E-02	-3.058E-03	-2.575E+01	-8.565E-01	 9.014E+00	 1.373E+01	-3.790E-01	 5.774E+02	 1.152E+03
  16.320	 2.756E+02	-9.236E-01	 1.259E+00	 3.935E+01	 1.944E-01	-3.812E-02	 4.144E+01	 3.741E+01	 3.774E+01	 4.481E-02	-2.329E-02	 8.813E-02	-4.570E-02	-2.576E+01	-6.490E-01	 1.171E+01	 1.361E+01	 1.054E-01	 5.770E+02	 1.162E+03
  16.340	 2.821E+02	-8.905E-01	 2.040E+00	 3.843E+01	 1.922E-01	-3.749E-02	 4.124E+01	 3.628E+01	 3.773E+01	 4.495E-02	-2.317E-02	 8.455E-02	-8.473E-02	-2.577E+01	-3.932E-01	 1.363E+01	 1.318E+01	 5.152E-01	 5.778E+02	 1.169E+03
  16.360	 2.887E+02	-8.422E-01	 2.784E+00	 3.574E+01	 1.892E-01	-3.634E-02	 4.056E+01	 3.454E+01	 3.777E+01	 4.511E-02	-2.309E-02	 4.557E-02	-1.000E-01	-2.578E+01	-1.155E-01	 1.381E+01	 1.256E+01	 8.109E-01	 5.771E+02	 1.173E+03
  16.380	 2.952E+02	-7.796E-01	 3.461E+00	 3.172E+01	 1.855E-01	-3.495E-02	 3.965E+01	 3.261E+01	 3.764E+01	 4.529E-02	-2.304E-02	-4.717E-03	-9.155E-02	-2.578E+01	 1.477E-01	 1.229E+01	 1.194E+01	 1.013E+00	 5.748E+02	 1.176E+03
  16.400	 3.017E+02	-7.044E-01	 4.046E+00	 2.676E+01	 1.813E-01	-3.364E-02	 3.888E+01	 3.090E+01	 3.737E+01	 4.547E-02	-2.303E-02	-3.734E-02	-7.584E-02	-2.577E+01	 3.715E-01	 1.009E+01	 1.141E+01	 1.183E+00	 5.722E+02	 1.180E+03
  16.420	 3.082E+02	-6.185E-01	 4.530E+00	 2.157E+01	 1.771E-01	-3.260E-02	 3.844E+01	 2.956E+01	 3.710E+01	 4.564E-02	-2.305E-02	-4.370E-02	-6.815E-02	-2.576E+01	 5.541E-01	 8.282E+00	 1.098E+01	 1.352E+00	 5.716E+02	 1.187E+03
  16.440	 3.147E+02	-5.239E-01	 4.904E+00	 1.565E+01	 1.735E-01	-3.181E-02	 3.824E+01	 2.836E+01	 3.701E+01	 4.579E-02	-2.310E-02	-3.667E-02	-7.193E-02	-2.575E+01	 7.071E-01	 7.089E+00	 1.056E+01	 1.496E+00	 5.737E+02	 1.194E+03
  16.460	 3.212E+02	-4.231E-01	 5.150E+00	 8.799E+00	 1.713E-01	-3.108E-02	 3.812E+01	 2.696E+01	 3.710E+01	 4.592E-02	-2.317E-02	-3.471E-02	-7.929E-02	-2.574E+01	 8.380E-01	 5.932E+00	 1.006E+01	 1.550E+00	 5.780E+02	 1.200E+03
  16.480	 3.278E+02	-3.189E-01	 5.252E+00	 1.404E+00	 1.707E-01	-3.023E-02	 3.801E+01	 2.515E+01	 3.723E+01	 4.604E-02	-2.328E-02	-4.491E-02	-8.001E-02	-2.572E+01	 9.401E-01	 4.151E+00	 9.477E+00	 1.469E+00	 5.834E+02	 1.203E+03
  16.500	 3.343E+02	-2.140E-01	 5.208E+00	-5.638E+00	 1.714E-01	-2.927E-02	 3.801E+01	 2.302E+01	 3.729E+01	 4.615E-02	-2.342E-02	-5.969E-02	-6.973E-02	-2.570E+01	 9.997E-01	 1.749E+00	 8.877E+00	 1.260E+00	 5.887E+02	 1.205E+03
  16.520	 3.408E+02	-1.114E-01	 5.038E+00	-1.105E+01	 1.728E-01	-2.834E-02	 3.822E+01	 2.087E+01	 3.726E+01	 4.623E-02	-2.359E-02	-6.766E-02	-5.052E-02	-2.568E+01	 1.010E+00	-6.460E-01	 8.322E+00	 9.627E-01	 5.937E+02	 1.205E+03
  16.540	 3.473E+02	-1.315E-02	 4.772E+00	-1.480E+01	 1.743E-01	-2.755E-02	 3.862E+01	 1.888E+01	 3.723E+01	 4.628E-02	-2.378E-02	-6.243E-02	-2.797E-02	-2.566E+01	 9.777E-01	-2.505E+00	 7.848E+00	 6.064E-01	 5.990E+02	 1.205E+03
  16.560	 3.538E+02	 7.981E-02	 4.581E+00	-2.228E+00	 1.760E-01	-2.690E-02	 3.842E+01	 1.639E+01	 3.669E+01	 4.630E-02	-2.398E-02	-7.087E-02	 8.764E-03	-2.564E+01	 8.958E-01	-6.532E+00	 7.542E+00	 9.793E-02	 6.046E+02	 1.205E+03
  16.580	 3.454E-01	 1.712E-01	 4.644E+00	 2.484E+01	 1.780E-01	-2.549E-02	 3.672E+01	 1.335E+01	 3.613E+01	 4.630E-02	-2.417E-02	-9.972E-02	 5.670E-02	-2.562E+01	 7.221E-01	-1.106E+01	 7.555E+00	-5.866E-01	 6.115E+02	 1.205E+03
  16.600	 6.861E+00	 2.695E-01	 5.043E+00	-9.313E+00	 1.780E-01	-2.294E-02	 3.554E+01	 9.901E+00	 3.559E+01	 4.626E-02	-2.434E-02	-1.067E-01	 8.939E-02	-2.561E+01	 4.601E-01	-1.464E+01	 8.105E+00	-1.338E+00	 6.199E+02	 1.206E+03
  16.620	 1.338E+01	 3.649E-01	 4.383E+00	-4.214E+01	 1.742E-01	-2.182E-02	 3.721E+01	 8.175E+00	 3.497E+01	 4.619E-02	-2.448E-02	-2.248E-02	 6.572E-02	-2.561E+01	 1.719E-01	-1.295E+01	 8.048E+00	-1.752E+00	 6.282E+02	 1.206E+03
  16.640	 1.989E+01	 4.456E-01	 3.780E+00	-1.594E+01	 1.672E-01	-2.207E-02	 3.909E+01	 8.635E+00	 3.570E+01	 4.610E-02	-2.460E-02	 4.724E-02	 3.106E-02	-2.560E+01	-3.188E-02	-7.539E+00	 7.949E+00	-1.844E+00	 6.332E+02	 1.201E+03
  16.660	 2.640E+01	 5.190E-01	 3.577E+00	-9.875E+00	 1.622E-01	-2.218E-02	 3.971E+01	 8.313E+00	 3.717E+01	 4.602E-02	-2.470E-02	 4.276E-02	 4.007E-02	-2.561E+01	-1.552E-01	-5.694E+00	 8.294E+00	-2.069E+00	 6.329E+02	 1.192E+03
  16.680	 3.292E+01	 5.880E-01	 3.313E+00	-1.468E+01	 1.617E-01	-2.124E-02	 3.894E+01	 6.103E+00	 3.826E+01	 4.597E-02	-2.478E-02	-1.353E-02	 9.763E-02	-2.561E+01	-2.921E-01	-8.563E+00	 8.958E+00	-2.567E+00	 6.289E+02	 1.183E+03
  16.700	 3.944E+01	 6.518E-01	 3.090E+00	-6.454E+00	 1.642E-01	-1.954E-02	 3.788E+01	 2.749E+00	 3.830E+01	 4.590E-02	-2.482E-02	-4.738E-02	 1.508E-01	-2.562E+01	-5.051E-01	-1.253E+01	 9.918E+00	-3.027E+00	 6.254E+02	 1.180E+03
  16.720	 4.595E+01	 7.127E-01	 3.019E+00	-2.870E+00	 1.678E-01	-1.793E-02	 3.797E+01	-5.118E-01	 3.758E+01	 4.583E-02	-2.480E-02	-1.256E-02	 1.498E-01	-2.563E+01	-7.730E-01	-1.354E+01	 1.103E+01	-3.157E+00	 6.253E+02	 1.182E+03
  16.740	 5.247E+01	 7.722E-01	 2.897E+00	-1.039E+01	 1.712E-01	-1.715E-02	 3.934E+01	-2.560E+00	 3.697E+01	 4.574E-02	-2.473E-02	 6.311E-02	 9.637E-02	-2.565E+01	-1.018E+00	-1.037E+01	 1.194E+01	-2.929E+00	 6.274E+02	 1.187E+03
  16.760	 5.899E+01	 8.274E-01	 2.593E+00	-1.980E+01	 1.742E-01	-1.730E-02	 4.098E+01	-3.128E+00	 3.708E+01	 4.569E-02	-2.462E-02	 1.124E-01	 3.298E-02	-2.567E+01	-1.172E+00	-4.884E+00	 1.249E+01	-2.486E+00	 6.277E+02	 1.187E+03
  16.780	 6.550E+01	 8.747E-01	 2.115E+00	-2.769E+01	 1.772E-01	-1.787E-02	 4.186E+01	-2.971E+00	 3.776E+01	 4.567E-02	-2.449E-02	 9.819E-02	 1.990E-03	-2.570E+01	-1.216E+00	 2.148E-01	 1.280E+01	-1.993E+00	 6.230E+02	 1.182E+03
  16.800	 7.202E+01	 9.110E-01	 1.496E+00	-3.391E+01	 1.803E-01	-1.821E-02	 4.187E+01	-3.058E+00	 3.839E+01	 4.569E-02	-2.436E-02	 4.341E-02	 1.133E-02	-2.572E+01	-1.176E+00	 3.540E+00	 1.308E+01	-1.546E+00	 6.136E+02	 1.176E+03
  16.820	 7.854E+01	 9.339E-01	 7.788E-01	-3.723E+01	 1.825E-01	-1.803E-02	 4.157E+01	-3.767E+00	 3.853E+01	 4.573E-02	-2.423E-02	 1.065E-03	 3.322E-02	-2.574E+01	-1.084E+00	 5.534E+00	 1.339E+01	-1.126E+00	 6.031E+02	 1.174E+03
  16.840	 8.506E+01	 9.419E-01	 2.104E-02	-3.840E+01	 1.831E-01	-1.751E-02	 4.153E+01	-4.735E+00	 3.823E+01	 4.578E-02	-2.408E-02	 2.266E-03	 3.345E-02	-2.576E+01	-9.543E-01	 7.499E+00	 1.366E+01	-6.709E-01	 5.955E+02	 1.178E+03
  16.860	 9.158E+01	 9.346E-01	-7.554E-01	-3.921E+01	 1.820E-01	-1.709E-02	 4.182E+01	-5.234E+00	 3.787E+01	 4.582E-02	-2.393E-02	 3.294E-02	 1.614E-03	-2.578E+01	-7.793E-01	 1.008E+01	 1.373E+01	-1.788E-01	 5.923E+02	 1.186E+03
  16.880	 9.810E+01	 9.116E-01	-1.543E+00	-3.934E+01	 1.801E-01	-1.712E-02	 4.204E+01	-4.745E+00	 3.773E+01	 4.588E-02	-2.377E-02	 5.353E-02	-4.415E-02	-2.579E+01	-5.510E-01	 1.264E+01	 1.348E+01	 2.845E-01	 5.919E+02	 1.193E+03
[...]
  18.300	 2.008E+02	-4.555E-01	-3.722E+00	 1.307E+01	 1.684E-01	-2.856E-02	 3.959E+01	 2.197E+01	 3.590E+01	 4.536E-02	-2.432E-02	 7.981E-02	 1.503E-02	-2.566E+01	-3.708E-02	-6.971E+00	 7.960E+00	-1.863E+00	 6.244E+02	 1.178E+03
  18.320	 2.073E+02	-5.279E-01	-3.528E+00	 1.099E+01	 1.703E-01	-2.947E-02	 4.008E+01	 2.388E+01	 3.739E+01	 4.524E-02	-2.439E-02	 6.664E-02	 3.131E-02	-2.567E+01	-1.563E-01	-5.857E+00	 8.357E+00	-2.131E+00	 6.228E+02	 1.167E+03
  18.340	 2.139E+02	-5.959E-01	-3.253E+00	 1.416E+01	 1.750E-01	-3.118E-02	 3.903E+01	 2.717E+01	 3.835E+01	 4.515E-02	-2.445E-02	 9.883E-03	 9.170E-02	-2.567E+01	-3.017E-01	-9.151E+00	 9.061E+00	-2.647E+00	 6.182E+02	 1.158E+03
  18.360	 2.204E+02	-6.586E-01	-3.053E+00	 5.187E+00	 1.805E-01	-3.312E-02	 3.812E+01	 3.049E+01	 3.824E+01	 4.506E-02	-2.447E-02	-1.511E-02	 1.392E-01	-2.568E+01	-5.254E-01	-1.292E+01	 1.006E+01	-3.074E+00	 6.148E+02	 1.155E+03
  18.380	 2.269E+02	-7.190E-01	-2.991E+00	 3.367E+00	 1.845E-01	-3.474E-02	 3.849E+01	 3.296E+01	 3.748E+01	 4.497E-02	-2.444E-02	 2.868E-02	 1.295E-01	-2.569E+01	-7.954E-01	-1.334E+01	 1.116E+01	-3.150E+00	 6.150E+02	 1.158E+03
  18.400	 2.334E+02	-7.777E-01	-2.849E+00	 1.165E+01	 1.864E-01	-3.581E-02	 3.996E+01	 3.434E+01	 3.694E+01	 4.489E-02	-2.436E-02	 1.043E-01	 7.174E-02	-2.571E+01	-1.031E+00	-9.699E+00	 1.203E+01	-2.881E+00	 6.173E+02	 1.163E+03
  18.420	 2.399E+02	-8.317E-01	-2.521E+00	 2.086E+01	 1.875E-01	-3.640E-02	 4.149E+01	 3.496E+01	 3.715E+01	 4.485E-02	-2.425E-02	 1.449E-01	 1.107E-02	-2.573E+01	-1.170E+00	-4.124E+00	 1.253E+01	-2.420E+00	 6.173E+02	 1.163E+03
  18.440	 2.464E+02	-8.774E-01	-2.025E+00	 2.853E+01	 1.893E-01	-3.679E-02	 4.214E+01	 3.543E+01	 3.786E+01	 4.486E-02	-2.414E-02	 1.212E-01	-1.328E-02	-2.576E+01	-1.201E+00	 7.654E-01	 1.283E+01	-1.930E+00	 6.123E+02	 1.158E+03
  18.460	 2.530E+02	-9.117E-01	-1.391E+00	 3.440E+01	 1.918E-01	-3.719E-02	 4.190E+01	 3.611E+01	 3.844E+01	 4.493E-02	-2.403E-02	 6.322E-02	 8.267E-04	-2.578E+01	-1.152E+00	 3.844E+00	 1.311E+01	-1.488E+00	 6.030E+02	 1.154E+03
  18.480	 2.595E+02	-9.325E-01	-6.695E-01	 3.728E+01	 1.943E-01	-3.766E-02	 4.144E+01	 3.694E+01	 3.851E+01	 4.502E-02	-2.391E-02	 2.385E-02	 2.252E-02	-2.580E+01	-1.056E+00	 5.753E+00	 1.343E+01	-1.065E+00	 5.935E+02	 1.154E+03
  18.500	 2.660E+02	-9.383E-01	 8.745E-02	 3.832E+01	 1.956E-01	-3.809E-02	 4.130E+01	 3.759E+01	 3.817E+01	 4.512E-02	-2.379E-02	 2.843E-02	 1.937E-02	-2.582E+01	-9.211E-01	 7.794E+00	 1.368E+01	-6.008E-01	 5.874E+02	 1.161E+03
  18.520	 2.725E+02	-9.288E-01	 8.618E-01	 3.909E+01	 1.953E-01	-3.824E-02	 4.145E+01	 3.767E+01	 3.783E+01	 4.523E-02	-2.367E-02	 5.736E-02	-1.468E-02	-2.584E+01	-7.394E-01	 1.044E+01	 1.371E+01	-1.056E-01	 5.858E+02	 1.171E+03
  18.540	 2.790E+02	-9.038E-01	 1.645E+00	 3.902E+01	 1.936E-01	-3.789E-02	 4.145E+01	 3.694E+01	 3.772E+01	 4.536E-02	-2.355E-02	 7.073E-02	-5.874E-02	-2.585E+01	-5.045E-01	 1.291E+01	 1.342E+01	 3.498E-01	 5.866E+02	 1.180E+03
  18.560	 2.855E+02	-8.632E-01	 2.410E+00	 3.713E+01	 1.909E-01	-3.697E-02	 4.100E+01	 3.544E+01	 3.777E+01	 4.553E-02	-2.345E-02	 4.697E-02	-8.675E-02	-2.586E+01	-2.323E-01	 1.400E+01	 1.287E+01	 7.016E-01	 5.869E+02	 1.186E+03
  18.580	 2.921E+02	-8.077E-01	 3.121E+00	 3.379E+01	 1.876E-01	-3.566E-02	 4.016E+01	 3.354E+01	 3.774E+01	 4.571E-02	-2.338E-02	-1.870E-03	-8.833E-02	-2.586E+01	 4.298E-02	 1.322E+01	 1.222E+01	 9.423E-01	 5.853E+02	 1.189E+03
  18.600	 2.986E+02	-7.388E-01	 3.752E+00	 2.915E+01	 1.836E-01	-3.427E-02	 3.928E+01	 3.168E+01	 3.752E+01	 4.589E-02	-2.335E-02	-4.528E-02	-7.382E-02	-2.586E+01	 2.882E-01	 1.119E+01	 1.164E+01	 1.119E+00	 5.824E+02	 1.192E+03
  18.620	 3.051E+02	-6.583E-01	 4.285E+00	 2.411E+01	 1.793E-01	-3.309E-02	 3.868E+01	 3.017E+01	 3.723E+01	 4.605E-02	-2.336E-02	-6.308E-02	-6.117E-02	-2.585E+01	 4.904E-01	 9.104E+00	 1.117E+01	 1.287E+00	 5.804E+02	 1.198E+03
  18.640	 3.116E+02	-5.681E-01	 4.714E+00	 1.864E+01	 1.753E-01	-3.220E-02	 3.838E+01	 2.895E+01	 3.704E+01	 4.619E-02	-2.338E-02	-5.904E-02	-6.022E-02	-2.584E+01	 6.568E-01	 7.644E+00	 1.075E+01	 1.448E+00	 5.809E+02	 1.204E+03
  18.660	 3.181E+02	-4.705E-01	 5.024E+00	 1.223E+01	 1.724E-01	-3.146E-02	 3.824E+01	 2.768E+01	 3.706E+01	 4.630E-02	-2.343E-02	-5.144E-02	-6.777E-02	-2.582E+01	 7.989E-01	 6.566E+00	 1.029E+01	 1.550E+00	 5.839E+02	 1.210E+03
  18.680	 3.247E+02	-3.681E-01	 5.198E+00	 5.027E+00	 1.710E-01	-3.068E-02	 3.812E+01	 2.607E+01	 3.718E+01	 4.639E-02	-2.351E-02	-5.441E-02	-7.335E-02	-2.581E+01	 9.169E-01	 5.130E+00	 9.747E+00	 1.535E+00	 5.884E+02	 1.213E+03
  18.700	 3.312E+02	-2.636E-01	 5.224E+00	-2.323E+00	 1.712E-01	-2.976E-02	 3.805E+01	 2.407E+01	 3.729E+01	 4.646E-02	-2.361E-02	-6.677E-02	-6.916E-02	-2.579E+01	 9.990E-01	 2.964E+00	 9.148E+00	 1.381E+00	 5.932E+02	 1.214E+03
  18.720	 3.377E+02	-1.600E-01	 5.111E+00	-8.679E+00	 1.723E-01	-2.879E-02	 3.815E+01	 2.189E+01	 3.730E+01	 4.651E-02	-2.375E-02	-7.718E-02	-5.458E-02	-2.577E+01	 1.033E+00	 4.672E-01	 8.565E+00	 1.119E+00	 5.976E+02	 1.213E+03
  18.740	 3.442E+02	-5.989E-02	 4.889E+00	-1.349E+01	 1.738E-01	-2.793E-02	 3.847E+01	 1.981E+01	 3.726E+01	 4.652E-02	-2.390E-02	-7.628E-02	-3.392E-02	-2.575E+01	 1.020E+00	-1.693E+00	 8.051E+00	 7.867E-01	 6.020E+02	 1.212E+03
  18.760	 3.507E+02	 3.500E-02	 4.608E+00	-9.126E+00	 1.753E-01	-2.722E-02	 3.870E+01	 1.775E+01	 3.715E+01	 4.651E-02	-2.407E-02	-7.220E-02	-7.415E-03	-2.573E+01	 9.683E-01	-3.999E+00	 7.629E+00	 3.763E-01	 6.066E+02	 1.210E+03
  18.780	 3.572E+02	 1.262E-01	 4.528E+00	-1.190E+00	 1.774E-01	-2.643E-02	 3.811E+01	 1.492E+01	 3.641E+01	 4.646E-02	-2.424E-02	-7.397E-02	 2.876E-02	-2.571E+01	 8.380E-01	-8.713E+00	 7.477E+00	-2.320E-01	 6.121E+02	 1.209E+03
  18.800	 3.759E+00	 2.197E-01	 4.946E+00	 2.498E+01	 1.784E-01	-2.413E-02	 3.554E+01	 1.149E+01	 3.580E+01	 4.638E-02	-2.440E-02	-1.265E-01	 8.736E-02	-2.569E+01	 6.153E-01	-1.334E+01	 7.860E+00	-9.974E-01	 6.187E+02	 1.207E+03
  18.820	 1.027E+01	 3.190E-01	 4.761E+00	-3.717E+01	 1.768E-01	-2.213E-02	 3.627E+01	 8.595E+00	 3.514E+01	 4.626E-02	-2.452E-02	-6.782E-02	 8.298E-02	-2.568E+01	 3.271E-01	-1.471E+01	 8.130E+00	-1.617E+00	 6.266E+02	 1.206E+03
  18.840	 1.679E+01	 4.061E-01	 3.980E+00	-2.996E+01	 1.708E-01	-2.188E-02	 3.831E+01	 8.333E+00	 3.522E+01	 4.611E-02	-2.462E-02	 2.285E-02	 4.476E-02	-2.568E+01	 7.295E-02	-1.007E+01	 7.937E+00	-1.815E+00	 6.327E+02	 1.202E+03
  18.860	 2.330E+01	 4.816E-01	 3.643E+00	-8.713E+00	 1.642E-01	-2.224E-02	 3.963E+01	 8.696E+00	 3.646E+01	 4.597E-02	-2.469E-02	 5.879E-02	 2.673E-02	-2.568E+01	-8.015E-02	-5.928E+00	 8.068E+00	-1.927E+00	 6.341E+02	 1.193E+03
  18.880	 2.982E+01	 5.525E-01	 3.435E+00	-1.373E+01	 1.615E-01	-2.184E-02	 3.946E+01	 7.376E+00	 3.787E+01	 4.584E-02	-2.475E-02	 2.207E-02	 6.378E-02	-2.568E+01	-1.990E-01	-6.787E+00	 8.594E+00	-2.312E+00	 6.307E+02	 1.181E+03
  18.900	 3.633E+01	 6.184E-01	 3.158E+00	-1.120E+01	 1.628E-01	-2.041E-02	 3.833E+01	 4.433E+00	 3.844E+01	 4.573E-02	-2.479E-02	-2.981E-02	 1.262E-01	-2.569E+01	-3.732E-01	-1.080E+01	 9.412E+00	-2.839E+00	 6.256E+02	 1.174E+03
  18.920	 4.285E+01	 6.800E-01	 3.029E+00	-2.801E+00	 1.661E-01	-1.864E-02	 3.774E+01	 9.660E-01	 3.799E+01	 4.561E-02	-2.477E-02	-2.735E-02	 1.536E-01	-2.570E+01	-6.228E-01	-1.361E+01	 1.049E+01	-3.147E+00	 6.229E+02	 1.172E+03
  18.940	 4.937E+01	 7.400E-01	 2.962E+00	-5.867E+00	 1.696E-01	-1.740E-02	 3.856E+01	-1.769E+00	 3.721E+01	 4.547E-02	-2.470E-02	 3.789E-02	 1.209E-01	-2.571E+01	-8.899E-01	-1.237E+01	 1.154E+01	-3.079E+00	 6.237E+02	 1.175E+03
  18.960	 5.588E+01	 7.975E-01	 2.753E+00	-1.530E+01	 1.727E-01	-1.713E-02	 4.022E+01	-3.008E+00	 3.694E+01	 4.536E-02	-2.458E-02	 1.093E-01	 5.499E-02	-2.573E+01	-1.094E+00	-7.657E+00	 1.226E+01	-2.716E+00	 6.248E+02	 1.176E+03
  18.980	 6.240E+01	 8.488E-01	 2.357E+00	-2.396E+01	 1.757E-01	-1.758E-02	 4.154E+01	-3.066E+00	 3.741E+01	 4.528E-02	-2.444E-02	 1.277E-01	 3.981E-03	-2.576E+01	-1.191E+00	-2.082E+00	 1.266E+01	-2.227E+00	 6.221E+02	 1.173E+03
  19.000	 6.892E+01	 8.907E-01	 1.804E+00	-3.109E+01	 1.788E-01	-1.810E-02	 4.192E+01	-2.940E+00	 3.814E+01	 4.525E-02	-2.429E-02	 8.750E-02	-4.970E-03	-2.578E+01	-1.187E+00	 2.147E+00	 1.293E+01	-1.752E+00	 6.142E+02	 1.166E+03
  19.020	 7.544E+01	 9.202E-01	 1.129E+00	-3.594E+01	 1.815E-01	-1.818E-02	 4.168E+01	-3.350E+00	 3.854E+01	 4.526E-02	-2.415E-02	 3.370E-02	 1.520E-02	-2.580E+01	-1.117E+00	 4.641E+00	 1.323E+01	-1.325E+00	 6.033E+02	 1.161E+03
  19.040	 8.195E+01	 9.354E-01	 3.877E-01	-3.783E+01	 1.829E-01	-1.777E-02	 4.147E+01	-4.273E+00	 3.842E+01	 4.528E-02	-2.400E-02	 1.339E-02	 2.881E-02	-2.582E+01	-1.006E+00	 6.466E+00	 1.354E+01	-8.915E-01	 5.937E+02	 1.161E+03
  19.060	 8.847E+01	 9.356E-01	-3.781E-01	-3.872E+01	 1.826E-01	-1.725E-02	 4.162E+01	-5.087E+00	 3.803E+01	 4.531E-02	-2.384E-02	 3.440E-02	 1.140E-02	-2.584E+01	-8.546E-01	 8.757E+00	 1.373E+01	-4.110E-01	 5.883E+02	 1.168E+03
  19.080	 9.499E+01	 9.202E-01	-1.159E+00	-3.930E+01	 1.810E-01	-1.703E-02	 4.193E+01	-5.107E+00	 3.777E+01	 4.536E-02	-2.367E-02	 6.481E-02	-3.124E-02	-2.586E+01	-6.523E-01	 1.147E+01	 1.363E+01	 7.749E-02	 5.868E+02	 1.176E+03
  19.100	 1.015E+02	 8.892E-01	-1.941E+00	-3.859E+01	 1.790E-01	-1.733E-02	 4.196E+01	-4.086E+00	 3.774E+01	 4.543E-02	-2.352E-02	 6.769E-02	-7.318E-02	-2.587E+01	-4.000E-01	 1.354E+01	 1.323E+01	 4.974E-01	 5.867E+02	 1.182E+03
  19.120	 1.080E+02	 8.428E-01	-2.690E+00	-3.598E+01	 1.775E-01	-1.804E-02	 4.155E+01	-2.357E+00	 3.779E+01	 4.552E-02	-2.340E-02	 3.441E-02	-9.266E-02	-2.587E+01	-1.224E-01	 1.391E+01	 1.262E+01	 8.038E-01	 5.852E+02	 1.184E+03
  19.140	 1.145E+02	 7.820E-01	-3.374E+00	-3.218E+01	 1.766E-01	-1.887E-02	 4.088E+01	-5.238E-01	 3.769E+01	 4.563E-02	-2.331E-02	-1.332E-02	-8.735E-02	-2.587E+01	 1.444E-01	 1.252E+01	 1.199E+01	 1.012E+00	 5.818E+02	 1.185E+03
  19.160	 1.211E+02	 7.084E-01	-3.969E+00	-2.725E+01	 1.762E-01	-1.955E-02	 4.031E+01	 9.647E-01	 3.742E+01	 4.573E-02	-2.326E-02	-4.543E-02	-7.296E-02	-2.587E+01	 3.732E-01	 1.033E+01	 1.145E+01	 1.181E+00	 5.780E+02	 1.187E+03
  19.180	 1.276E+02	 6.239E-01	-4.463E+00	-2.211E+01	 1.758E-01	-2.001E-02	 4.002E+01	 2.087E+00	 3.715E+01	 4.582E-02	-2.323E-02	-5.086E-02	-6.556E-02	-2.586E+01	 5.600E-01	 8.456E+00	 1.101E+01	 1.349E+00	 5.759E+02	 1.191E+03
  19.200	 1.341E+02	 5.306E-01	-4.849E+00	-1.631E+01	 1.752E-01	-2.041E-02	 3.991E+01	 3.176E+00	 3.704E+01	 4.588E-02	-2.324E-02	-4.092E-02	-6.995E-02	-2.585E+01	 7.159E-01	 7.213E+00	 1.059E+01	 1.495E+00	 5.765E+02	 1.195E+03
  19.220	 1.406E+02	 4.308E-01	-5.109E+00	-9.537E+00	 1.745E-01	-2.095E-02	 3.980E+01	 4.602E+00	 3.711E+01	 4.593E-02	-2.327E-02	-3.441E-02	-7.904E-02	-2.583E+01	 8.493E-01	 6.082E+00	 1.009E+01	 1.559E+00	 5.795E+02	 1.199E+03
  19.240	 1.471E+02	 3.272E-01	-5.226E+00	-2.152E+00	 1.739E-01	-2.173E-02	 3.959E+01	 6.486E+00	 3.724E+01	 4.597E-02	-2.333E-02	-4.013E-02	-8.235E-02	-2.581E+01	 9.551E-01	 4.370E+00	 9.521E+00	 1.490E+00	 5.836E+02	 1.200E+03
  19.260	 1.537E+02	 2.227E-01	-5.197E+00	 4.984E+00	 1.736E-01	-2.270E-02	 3.939E+01	 8.647E+00	 3.731E+01	 4.599E-02	-2.343E-02	-5.174E-02	-7.468E-02	-2.579E+01	 1.020E+00	 2.003E+00	 8.920E+00	 1.290E+00	 5.877E+02	 1.199E+03
  19.280	 1.602E+02	 1.202E-01	-5.037E+00	 1.063E+01	 1.738E-01	-2.374E-02	 3.932E+01	 1.079E+01	 3.730E+01	 4.599E-02	-2.355E-02	-5.762E-02	-5.761E-02	-2.577E+01	 1.035E+00	-4.245E-01	 8.358E+00	 9.978E-01	 5.917E+02	 1.197E+03
  19.300	 1.667E+02	 2.186E-02	-4.778E+00	 1.491E+01	 1.745E-01	-2.474E-02	 3.945E+01	 1.277E+01	 3.726E+01	 4.596E-02	-2.370E-02	-5.045E-02	-3.666E-02	-2.575E+01	 1.006E+00	-2.320E+00	 7.874E+00	 6.462E-01	 5.958E+02	 1.195E+03
  19.320	 1.732E+02	-7.105E-02	-4.561E+00	 3.169E+00	 1.757E-01	-2.576E-02	 3.930E+01	 1.485E+01	 3.681E+01	 4.592E-02	-2.386E-02	-5.481E-02	-2.702E-03	-2.573E+01	 9.320E-01	-5.990E+00	 7.539E+00	 1.590E-01	 6.004E+02	 1.193E+03
  19.340	 1.797E+02	-1.619E-01	-4.576E+00	-1.838E+01	 1.765E-01	-2.690E-02	 3.824E+01	 1.735E+01	 3.622E+01	 4.585E-02	-2.402E-02	-7.277E-02	 4.051E-02	-2.571E+01	 7.674E-01	-1.048E+01	 7.504E+00	-5.090E-01	 6.063E+02	 1.191E+03
  19.360	 1.862E+02	-2.587E-01	-5.028E+00	 1.945E+00	 1.745E-01	-2.789E-02	 3.643E+01	 2.020E+01	 3.568E+01	 4.576E-02	-2.417E-02	-9.207E-02	 8.018E-02	-2.570E+01	 5.127E-01	-1.440E+01	 8.054E+00	-1.274E+00	 6.137E+02	 1.190E+03
  19.380	 1.928E+02	-3.548E-01	-4.441E+00	 4.274E+01	 1.704E-01	-2.832E-02	 3.704E+01	 2.161E+01	 3.500E+01	 4.563E-02	-2.429E-02	-1.019E-02	 5.934E-02	-2.569E+01	 2.217E-01	-1.343E+01	 8.055E+00	-1.737E+00	 6.215E+02	 1.189E+03
  19.400	 1.993E+02	-4.362E-01	-3.788E+00	 1.848E+01	 1.684E-01	-2.847E-02	 3.918E+01	 2.181E+01	 3.560E+01	 4.549E-02	-2.438E-02	 6.635E-02	 2.217E-02	-2.569E+01	 6.869E-03	-8.016E+00	 7.923E+00	-1.842E+00	 6.264E+02	 1.183E+03
  19.420	 2.058E+02	-5.095E-01	-3.569E+00	 9.221E+00	 1.696E-01	-2.917E-02	 4.016E+01	 2.326E+01	 3.704E+01	 4.538E-02	-2.446E-02	 7.091E-02	 2.480E-02	-2.569E+01	-1.210E-01	-5.646E+00	 8.227E+00	-2.039E+00	 6.263E+02	 1.174E+03
  19.440	 2.123E+02	-5.786E-01	-3.316E+00	 1.479E+01	 1.737E-01	-3.073E-02	 3.935E+01	 2.634E+01	 3.821E+01	 4.530E-02	-2.454E-02	 1.764E-02	 7.898E-02	-2.570E+01	-2.527E-01	-8.159E+00	 8.862E+00	-2.518E+00	 6.222E+02	 1.164E+03
  19.460	 2.188E+02	-6.423E-01	-3.079E+00	 7.345E+00	 1.793E-01	-3.267E-02	 3.826E+01	 2.975E+01	 3.836E+01	 4.523E-02	-2.458E-02	-2.131E-02	 1.353E-01	-2.570E+01	-4.579E-01	-1.223E+01	 9.795E+00	-2.999E+00	 6.183E+02	 1.160E+03
  19.480	 2.253E+02	-7.029E-01	-3.001E+00	 2.477E+00	 1.837E-01	-3.440E-02	 3.830E+01	 3.247E+01	 3.767E+01	 4.514E-02	-2.456E-02	 6.403E-03	 1.408E-01	-2.572E+01	-7.236E-01	-1.366E+01	 1.091E+01	-3.167E+00	 6.178E+02	 1.162E+03
  19.500	 2.319E+02	-7.621E-01	-2.897E+00	 9.248E+00	 1.861E-01	-3.561E-02	 3.958E+01	 3.410E+01	 3.701E+01	 4.507E-02	-2.450E-02	 8.023E-02	 9.120E-02	-2.573E+01	-9.753E-01	-1.087E+01	 1.185E+01	-2.970E+00	 6.200E+02	 1.167E+03
  19.520	 2.384E+02	-8.175E-01	-2.616E+00	 1.870E+01	 1.873E-01	-3.630E-02	 4.119E+01	 3.485E+01	 3.704E+01	 4.502E-02	-2.439E-02	 1.339E-01	 2.680E-02	-2.575E+01	-1.141E+00	-5.497E+00	 1.244E+01	-2.538E+00	 6.210E+02	 1.168E+03
  19.540	 2.449E+02	-8.656E-01	-2.159E+00	 2.673E+01	 1.888E-01	-3.671E-02	 4.210E+01	 3.531E+01	 3.768E+01	 4.503E-02	-2.428E-02	 1.248E-01	-8.077E-03	-2.578E+01	-1.196E+00	-2.658E-01	 1.277E+01	-2.042E+00	 6.172E+02	 1.164E+03
  19.560	 2.514E+02	-9.029E-01	-1.556E+00	 3.317E+01	 1.912E-01	-3.710E-02	 4.203E+01	 3.593E+01	 3.835E+01	 4.508E-02	-2.417E-02	 7.031E-02	-1.290E-03	-2.580E+01	-1.163E+00	 3.247E+00	 1.304E+01	-1.587E+00	 6.087E+02	 1.159E+03
  19.580	 2.579E+02	-9.271E-01	-8.513E-01	 3.679E+01	 1.938E-01	-3.756E-02	 4.155E+01	 3.675E+01	 3.854E+01	 4.516E-02	-2.405E-02	 2.277E-02	 2.193E-02	-2.582E+01	-1.076E+00	 5.323E+00	 1.335E+01	-1.164E+00	 5.987E+02	 1.158E+03
  19.600	 2.644E+02	-9.367E-01	-1.008E-01	 3.807E+01	 1.955E-01	-3.801E-02	 4.131E+01	 3.747E+01	 3.827E+01	 4.525E-02	-2.393E-02	 1.731E-02	 2.634E-02	-2.584E+01	-9.514E-01	 7.246E+00	 1.364E+01	-7.117E-01	 5.914E+02	 1.163E+03
  19.620	 2.710E+02	-9.310E-01	 6.692E-01	 3.891E+01	 1.955E-01	-3.825E-02	 4.142E+01	 3.772E+01	 3.790E+01	 4.535E-02	-2.380E-02	 4.424E-02	-1.651E-03	-2.586E+01	-7.821E-01	 9.785E+00	 1.373E+01	-2.185E-01	 5.887E+02	 1.173E+03
  19.640	 2.775E+02	-9.098E-01	 1.452E+00	 3.917E+01	 1.941E-01	-3.803E-02	 4.151E+01	 3.719E+01	 3.773E+01	 4.547E-02	-2.367E-02	 6.491E-02	-4.613E-02	-2.588E+01	-5.593E-01	 1.241E+01	 1.351E+01	 2.538E-01	 5.890E+02	 1.182E+03
  19.660	 2.840E+02	-8.730E-01	 2.225E+00	 3.776E+01	 1.917E-01	-3.725E-02	 4.117E+01	 3.586E+01	 3.776E+01	 4.562E-02	-2.356E-02	 5.067E-02	-7.996E-02	-2.588E+01	-2.932E-01	 1.392E+01	 1.301E+01	 6.333E-01	 5.895E+02	 1.188E+03
  19.680	 2.905E+02	-8.211E-01	 2.951E+00	 3.470E+01	 1.885E-01	-3.600E-02	 4.039E+01	 3.401E+01	 3.777E+01	 4.578E-02	-2.348E-02	 6.044E-03	-8.797E-02	-2.589E+01	-1.512E-02	 1.357E+01	 1.238E+01	 8.979E-01	 5.881E+02	 1.192E+03
  19.700	 2.970E+02	-7.555E-01	 3.604E+00	 3.034E+01	 1.847E-01	-3.460E-02	 3.949E+01	 3.210E+01	 3.759E+01	 4.594E-02	-2.344E-02	-4.055E-02	-7.596E-02	-2.588E+01	 2.396E-01	 1.173E+01	 1.177E+01	 1.083E+00	 5.851E+02	 1.194E+03
  19.720	 3.036E+02	-6.776E-01	 4.161E+00	 2.534E+01	 1.804E-01	-3.335E-02	 3.881E+01	 3.050E+01	 3.730E+01	 4.609E-02	-2.342E-02	-6.426E-02	-6.186E-02	-2.588E+01	 4.521E-01	 9.563E+00	 1.127E+01	 1.250E+00	 5.825E+02	 1.198E+03
  19.740	 3.101E+02	-5.897E-01	 4.615E+00	 2.003E+01	 1.763E-01	-3.240E-02	 3.845E+01	 2.923E+01	 3.708E+01	 4.622E-02	-2.343E-02	-6.328E-02	-5.831E-02	-2.587E+01	 6.260E-01	 7.941E+00	 1.085E+01	 1.415E+00	 5.820E+02	 1.204E+03
  19.760	 3.166E+02	-4.938E-01	 4.956E+00	 1.386E+01	 1.730E-01	-3.164E-02	 3.828E+01	 2.801E+01	 3.704E+01	 4.631E-02	-2.346E-02	-5.403E-02	-6.503E-02	-2.585E+01	 7.733E-01	 6.832E+00	 1.041E+01	 1.538E+00	 5.841E+02	 1.210E+03
  19.780	 3.231E+02	-3.924E-01	 5.164E+00	 6.797E+00	 1.713E-01	-3.088E-02	 3.816E+01	 2.650E+01	 3.716E+01	 4.639E-02	-2.352E-02	-5.316E-02	-7.238E-02	-2.584E+01	 8.980E-01	 5.539E+00	 9.881E+00	 1.554E+00	 5.881E+02	 1.213E+03
  19.800	 3.296E+02	-2.882E-01	 5.225E+00	-6.094E-01	 1.711E-01	-2.999E-02	 3.807E+01	 2.457E+01	 3.728E+01	 4.645E-02	-2.361E-02	-6.327E-02	-7.125E-02	-2.582E+01	 9.900E-01	 3.538E+00	 9.289E+00	 1.431E+00	 5.926E+02	 1.214E+03
  19.820	 3.361E+02	-1.843E-01	 5.144E+00	-7.335E+00	 1.720E-01	-2.902E-02	 3.812E+01	 2.241E+01	 3.731E+01	 4.648E-02	-2.373E-02	-7.435E-02	-5.930E-02	-2.580E+01	 1.036E+00	 1.055E+00	 8.695E+00	 1.190E+00	 5.968E+02	 1.212E+03
  19.840	 3.427E+02	-8.326E-02	 4.945E+00	-1.232E+01	 1.735E-01	-2.812E-02	 3.838E+01	 2.029E+01	 3.728E+01	 4.648E-02	-2.387E-02	-7.608E-02	-3.982E-02	-2.578E+01	 1.034E+00	-1.231E+00	 8.162E+00	 8.715E-01	 6.009E+02	 1.210E+03
  19.860	 3.492E+02	 1.288E-02	 4.660E+00	-1.491E+01	 1.749E-01	-2.738E-02	 3.878E+01	 1.833E+01	 3.725E+01	 4.645E-02	-2.402E-02	-6.470E-02	-1.823E-02	-2.576E+01	 9.912E-01	-2.951E+00	 7.713E+00	 4.942E-01	 6.052E+02	 1.208E+03
  19.880	 3.557E+02	 1.044E-01	 4.537E+00	-4.239E+00	 1.769E-01	-2.671E-02	 3.838E+01	 1.560E+01	 3.653E+01	 4.639E-02	-2.419E-02	-6.985E-02	 1.871E-02	-2.574E+01	 8.842E-01	-7.794E+00	 7.493E+00	-7.790E-02	 6.101E+02	 1.206E+03
  19.900	 2.209E+00	 1.962E-01	 4.791E+00	 3.442E+01	 1.783E-01	-2.478E-02	 3.589E+01	 1.232E+01	 3.592E+01	 4.631E-02	-2.434E-02	-1.207E-01	 7.725E-02	-2.572E+01	 6.842E-01	-1.252E+01	 7.692E+00	-8.131E-01	 6.161E+02	 1.204E+03
  19.920	 8.724E+00	 2.954E-01	 4.911E+00	-2.755E+01	 1.776E-01	-2.244E-02	 3.590E+01	 9.094E+00	 3.534E+01	 4.618E-02	-2.447E-02	-8.322E-02	 8.582E-02	-2.571E+01	 4.047E-01	-1.494E+01	 8.135E+00	-1.507E+00	 6.237E+02	 1.203E+03
  19.940	 1.524E+01	 3.862E-01	 4.134E+00	-3.681E+01	 1.724E-01	-2.182E-02	 3.782E+01	 8.209E+00	 3.507E+01	 4.601E-02	-2.456E-02	 8.556E-03	 5.202E-02	-2.571E+01	 1.308E-01	-1.145E+01	 7.970E+00	-1.797E+00	 6.304E+02	 1.199E+03
  19.960	 2.175E+01	 4.634E-01	 3.683E+00	-1.072E+01	 1.655E-01	-2.218E-02	 3.943E+01	 8.719E+00	 3.611E+01	 4.585E-02	-2.463E-02	 6.285E-02	 2.383E-02	-2.570E+01	-4.418E-02	-6.511E+00	 7.990E+00	-1.883E+00	 6.329E+02	 1.191E+03
  19.980	 2.827E+01	 5.352E-01	 3.492E+00	-1.208E+01	 1.617E-01	-2.203E-02	 3.962E+01	 7.871E+00	 3.758E+01	 4.572E-02	-2.469E-02	 4.098E-02	 4.772E-02	-2.571E+01	-1.619E-01	-6.151E+00	 8.439E+00	-2.195E+00	 6.303E+02	 1.180E+03
  20.000	 3.478E+01	 6.023E-01	 3.212E+00	-1.324E+01	 1.622E-01	-2.081E-02	 3.860E+01	 5.233E+00	 3.841E+01	 4.560E-02	-2.473E-02	-1.426E-02	 1.095E-01	-2.571E+01	-3.176E-01	-9.788E+00	 9.185E+00	-2.722E+00	 6.250E+02	 1.170E+03
