
This summary information was generated by ElastoDyn (v1.01.06a-bjj, 2-May-2014) on 12-May-2014 at 12:33:18.


Turbine features:

            Upwind, three-bladed rotor with rigid hub.
            The model has 22 of 24 DOFs active (enabled) at start-up.
 Enabled    Platform horizontal surge translation DOF 
 Enabled    Platform horizontal sway translation DOF 
 Enabled    Platform vertical heave translation DOF 
 Enabled    Platform roll tilt rotation DOF 
 Enabled    Platform pitch tilt rotation DOF 
 Enabled    Platform yaw rotation DOF 
 Enabled    1st tower fore-aft bending mode DOF 
 Enabled    1st tower side-to-side bending mode DOF 
 Enabled    2nd tower fore-aft bending mode DOF 
 Enabled    2nd tower side-to-side bending mode DOF 
 Enabled    Nacelle yaw DOF 
 Disabled   Rotor-furl DOF 
 Enabled    Variable speed generator DOF 
 Enabled    Drivetrain rotational-flexibility DOF 
 Disabled   Tail-furl DOF 
 Enabled    1st flapwise bending-mode DOF of blade 1 
 Enabled    1st edgewise bending-mode DOF of blade 1 
 Enabled    2nd flapwise bending-mode DOF of blade 1 
 Enabled    1st flapwise bending-mode DOF of blade 2 
 Enabled    1st edgewise bending-mode DOF of blade 2 
 Enabled    2nd flapwise bending-mode DOF of blade 2 
 Enabled    1st flapwise bending-mode DOF of blade 3 
 Enabled    1st edgewise bending-mode DOF of blade 3 
 Enabled    2nd flapwise bending-mode DOF of blade 3 


Time steps:

    Structural            (s)        0.00300000


Some calculated parameters:

    Hub-Height            (m)            90.000
    Flexible Tower Length (m)            77.600
    Flexible Blade Length (m)            61.500


Rotor mass properties:

    Rotor Mass            (kg)       110000.234
    Rotor Inertia         (kg-m^2) 38759228.000
                                        Blade 1      Blade 2      Blade 3
                                        -------      -------      -------
    Mass                  (kg)        17740.082    17740.082    17740.082
    Second Mass Moment    (kg-m^2) 11776047.000 11776047.000 11776047.000
    First Mass Moment     (kg-m)     363231.312   363231.312   363231.312
    Center of Mass        (m)            20.475       20.475       20.475


Additional mass properties:

    Tower-top Mass        (kg)       350000.250
    Tower Mass            (kg)       237098.062
    Platform Mass         (kg)            0.000
    Mass Incl. Platform   (kg)       587098.312


Interpolated tower properties:

Node  TwFract   HNodes  DHNodes  TMassDen    FAStiff    SSStiff
 (-)      (-)      (m)      (m)    (kg/m)     (Nm^2)     (Nm^2)
   1    0.005    0.392    0.784  4292.567  4.714E+11  4.714E+11
   2    0.015    1.176    0.784  4264.681  4.652E+11  4.652E+11
   3    0.025    1.960    0.784  4236.795  4.590E+11  4.590E+11
   4    0.035    2.743    0.784  4208.909  4.528E+11  4.528E+11
   5    0.045    3.527    0.784  4181.023  4.466E+11  4.466E+11
   6    0.056    4.311    0.784  4153.138  4.404E+11  4.404E+11
   7    0.066    5.095    0.784  4125.252  4.342E+11  4.342E+11
   8    0.076    5.879    0.784  4097.366  4.280E+11  4.280E+11
   9    0.086    6.663    0.784  4069.480  4.218E+11  4.218E+11
  10    0.096    7.446    0.784  4041.594  4.156E+11  4.156E+11
  11    0.106    8.230    0.784  4014.259  4.097E+11  4.097E+11
  12    0.116    9.014    0.784  3987.290  4.042E+11  4.042E+11
  13    0.126    9.798    0.784  3960.321  3.986E+11  3.986E+11
  14    0.136   10.582    0.784  3933.353  3.930E+11  3.930E+11
  15    0.146   11.366    0.784  3906.384  3.874E+11  3.874E+11
  16    0.157   12.149    0.784  3879.415  3.818E+11  3.818E+11
  17    0.167   12.933    0.784  3852.447  3.762E+11  3.762E+11
  18    0.177   13.717    0.784  3825.478  3.707E+11  3.707E+11
  19    0.187   14.501    0.784  3798.509  3.651E+11  3.651E+11
  20    0.197   15.285    0.784  3771.541  3.595E+11  3.595E+11
  21    0.207   16.069    0.784  3745.212  3.543E+11  3.543E+11
  22    0.217   16.853    0.784  3719.159  3.493E+11  3.493E+11
  23    0.227   17.636    0.784  3693.105  3.443E+11  3.443E+11
  24    0.237   18.420    0.784  3667.052  3.393E+11  3.393E+11
  25    0.247   19.204    0.784  3640.999  3.343E+11  3.343E+11
  26    0.258   19.988    0.784  3614.945  3.293E+11  3.293E+11
  27    0.268   20.772    0.784  3588.891  3.243E+11  3.243E+11
  28    0.278   21.556    0.784  3562.838  3.193E+11  3.193E+11
  29    0.288   22.339    0.784  3536.784  3.143E+11  3.143E+11
  30    0.298   23.123    0.784  3510.731  3.093E+11  3.093E+11
  31    0.308   23.907    0.784  3485.410  3.047E+11  3.047E+11
  32    0.318   24.691    0.784  3460.273  3.003E+11  3.003E+11
  33    0.328   25.475    0.784  3435.135  2.958E+11  2.958E+11
  34    0.338   26.259    0.784  3409.998  2.913E+11  2.913E+11
  35    0.348   27.042    0.784  3384.861  2.869E+11  2.869E+11
  36    0.359   27.826    0.784  3359.723  2.824E+11  2.824E+11
  37    0.369   28.610    0.784  3334.586  2.779E+11  2.779E+11
  38    0.379   29.394    0.784  3309.448  2.735E+11  2.735E+11
  39    0.389   30.178    0.784  3284.311  2.690E+11  2.690E+11
  40    0.399   30.962    0.784  3259.174  2.645E+11  2.645E+11
  41    0.409   31.745    0.784  3234.860  2.605E+11  2.605E+11
  42    0.419   32.529    0.784  3210.638  2.565E+11  2.565E+11
  43    0.429   33.313    0.784  3186.416  2.526E+11  2.526E+11
  44    0.439   34.097    0.784  3162.193  2.486E+11  2.486E+11
  45    0.449   34.881    0.784  3137.971  2.446E+11  2.446E+11
  46    0.460   35.665    0.784  3113.749  2.407E+11  2.407E+11
  47    0.470   36.448    0.784  3089.527  2.367E+11  2.367E+11
  48    0.480   37.232    0.784  3065.304  2.327E+11  2.327E+11
  49    0.490   38.016    0.784  3041.082  2.288E+11  2.288E+11
  50    0.500   38.800    0.784  3016.860  2.248E+11  2.248E+11
  51    0.510   39.584    0.784  2993.554  2.213E+11  2.213E+11
  52    0.520   40.368    0.784  2970.248  2.178E+11  2.178E+11
  53    0.530   41.152    0.784  2946.941  2.143E+11  2.143E+11
  54    0.540   41.935    0.784  2923.635  2.108E+11  2.108E+11
  55    0.551   42.719    0.784  2900.329  2.073E+11  2.073E+11
  56    0.561   43.503    0.784  2877.023  2.037E+11  2.037E+11
  57    0.571   44.287    0.784  2853.717  2.002E+11  2.002E+11
  58    0.581   45.071    0.784  2830.411  1.967E+11  1.967E+11
  59    0.591   45.855    0.784  2807.105  1.932E+11  1.932E+11
  60    0.601   46.638    0.784  2783.890  1.898E+11  1.898E+11
  61    0.611   47.422    0.784  2761.499  1.867E+11  1.867E+11
  62    0.621   48.206    0.784  2739.108  1.836E+11  1.836E+11
  63    0.631   48.990    0.784  2716.717  1.805E+11  1.805E+11
  64    0.641   49.774    0.784  2694.326  1.774E+11  1.774E+11
  65    0.652   50.558    0.784  2671.935  1.743E+11  1.743E+11
  66    0.662   51.341    0.784  2649.544  1.712E+11  1.712E+11
  67    0.672   52.125    0.784  2627.153  1.681E+11  1.681E+11
  68    0.682   52.909    0.784  2604.762  1.650E+11  1.650E+11
  69    0.692   53.693    0.784  2582.371  1.620E+11  1.620E+11
  70    0.702   54.477    0.784  2560.164  1.590E+11  1.590E+11
  71    0.712   55.261    0.784  2538.690  1.563E+11  1.563E+11
  72    0.722   56.044    0.784  2517.216  1.536E+11  1.536E+11
  73    0.732   56.828    0.784  2495.743  1.509E+11  1.509E+11
  74    0.742   57.612    0.784  2474.269  1.482E+11  1.482E+11
  75    0.753   58.396    0.784  2452.795  1.455E+11  1.455E+11
  76    0.763   59.180    0.784  2431.321  1.428E+11  1.428E+11
  77    0.773   59.964    0.784  2409.848  1.401E+11  1.401E+11
  78    0.783   60.748    0.784  2388.374  1.374E+11  1.374E+11
  79    0.793   61.531    0.784  2366.900  1.347E+11  1.347E+11
  80    0.803   62.315    0.784  2345.701  1.321E+11  1.321E+11
  81    0.813   63.099    0.784  2325.142  1.297E+11  1.297E+11
  82    0.823   63.883    0.784  2304.583  1.274E+11  1.274E+11
  83    0.833   64.667    0.784  2284.025  1.250E+11  1.250E+11
  84    0.843   65.451    0.784  2263.467  1.227E+11  1.227E+11
  85    0.854   66.234    0.784  2242.908  1.203E+11  1.203E+11
  86    0.864   67.018    0.784  2222.349  1.180E+11  1.180E+11
  87    0.874   67.802    0.784  2201.791  1.156E+11  1.156E+11
  88    0.884   68.586    0.784  2181.232  1.133E+11  1.133E+11
  89    0.894   69.370    0.784  2160.674  1.109E+11  1.109E+11
  90    0.904   70.154    0.784  2140.481  1.087E+11  1.087E+11
  91    0.914   70.937    0.784  2120.838  1.067E+11  1.067E+11
  92    0.924   71.721    0.784  2101.195  1.047E+11  1.047E+11
  93    0.934   72.505    0.784  2081.551  1.027E+11  1.027E+11
  94    0.944   73.289    0.784  2061.908  1.006E+11  1.006E+11
  95    0.955   74.073    0.784  2042.264  9.860E+10  9.860E+10
  96    0.965   74.857    0.784  2022.621  9.658E+10  9.658E+10
  97    0.975   75.640    0.784  2002.978  9.455E+10  9.455E+10
  98    0.985   76.424    0.784  1983.334  9.253E+10  9.253E+10
  99    0.995   77.208    0.784  1963.691  9.050E+10  9.050E+10


Interpolated blade 1 properties:

Node  BlFract   RNodes  DRNodes PitchAxis  StrcTwst  BMassDen    FlpStff    EdgStff
 (-)      (-)      (m)      (m)       (-)     (deg)    (kg/m)     (Nm^2)     (Nm^2)
   1    0.022    2.867    2.733     0.251    13.308   802.720  1.910E+10  1.955E+10
   2    0.067    5.600    2.733     0.278    13.308   634.770  1.123E+10  1.535E+10
   3    0.111    8.333    2.733     0.312    13.308   427.782  5.815E+09  8.460E+09
   4    0.167   11.750    4.100     0.354    13.302   445.160  4.654E+09  7.173E+09
   5    0.233   15.850    4.100     0.375    11.488   368.301  2.542E+09  5.034E+09
   6    0.300   19.950    4.100     0.375    10.162   353.510  2.022E+09  4.469E+09
   7    0.367   24.050    4.100     0.375     9.009   335.102  1.549E+09  3.953E+09
   8    0.433   28.150    4.100     0.375     7.795   306.314  1.051E+09  3.378E+09
   9    0.500   32.250    4.100     0.375     6.549   272.375  6.410E+08  2.685E+09
  10    0.567   36.350    4.100     0.375     5.359   245.485  3.782E+08  2.170E+09
  11    0.633   40.450    4.100     0.375     4.189   201.195  2.151E+08  1.486E+09
  12    0.700   44.550    4.100     0.375     3.144   167.837  1.180E+08  1.114E+09
  13    0.767   48.650    4.100     0.375     2.319   140.582  8.396E+07  7.559E+08
  14    0.833   52.750    4.100     0.375     1.526   107.471  5.498E+07  4.849E+08
  15    0.889   56.167    2.733     0.375     0.863    90.806  3.717E+07  3.758E+08
  16    0.933   58.900    2.733     0.375     0.370    70.842  2.545E+07  2.735E+08
  17    0.978   61.633    2.733     0.375     0.106    48.355  7.887E+06  8.728E+07


Interpolated blade 2 properties:

Node  BlFract   RNodes  DRNodes PitchAxis  StrcTwst  BMassDen    FlpStff    EdgStff
 (-)      (-)      (m)      (m)       (-)     (deg)    (kg/m)     (Nm^2)     (Nm^2)
   1    0.022    2.867    2.733     0.251    13.308   802.720  1.910E+10  1.955E+10
   2    0.067    5.600    2.733     0.278    13.308   634.770  1.123E+10  1.535E+10
   3    0.111    8.333    2.733     0.312    13.308   427.782  5.815E+09  8.460E+09
   4    0.167   11.750    4.100     0.354    13.302   445.160  4.654E+09  7.173E+09
   5    0.233   15.850    4.100     0.375    11.488   368.301  2.542E+09  5.034E+09
   6    0.300   19.950    4.100     0.375    10.162   353.510  2.022E+09  4.469E+09
   7    0.367   24.050    4.100     0.375     9.009   335.102  1.549E+09  3.953E+09
   8    0.433   28.150    4.100     0.375     7.795   306.314  1.051E+09  3.378E+09
   9    0.500   32.250    4.100     0.375     6.549   272.375  6.410E+08  2.685E+09
  10    0.567   36.350    4.100     0.375     5.359   245.485  3.782E+08  2.170E+09
  11    0.633   40.450    4.100     0.375     4.189   201.195  2.151E+08  1.486E+09
  12    0.700   44.550    4.100     0.375     3.144   167.837  1.180E+08  1.114E+09
  13    0.767   48.650    4.100     0.375     2.319   140.582  8.396E+07  7.559E+08
  14    0.833   52.750    4.100     0.375     1.526   107.471  5.498E+07  4.849E+08
  15    0.889   56.167    2.733     0.375     0.863    90.806  3.717E+07  3.758E+08
  16    0.933   58.900    2.733     0.375     0.370    70.842  2.545E+07  2.735E+08
  17    0.978   61.633    2.733     0.375     0.106    48.355  7.887E+06  8.728E+07


Interpolated blade 3 properties:

Node  BlFract   RNodes  DRNodes PitchAxis  StrcTwst  BMassDen    FlpStff    EdgStff
 (-)      (-)      (m)      (m)       (-)     (deg)    (kg/m)     (Nm^2)     (Nm^2)
   1    0.022    2.867    2.733     0.251    13.308   802.720  1.910E+10  1.955E+10
   2    0.067    5.600    2.733     0.278    13.308   634.770  1.123E+10  1.535E+10
   3    0.111    8.333    2.733     0.312    13.308   427.782  5.815E+09  8.460E+09
   4    0.167   11.750    4.100     0.354    13.302   445.160  4.654E+09  7.173E+09
   5    0.233   15.850    4.100     0.375    11.488   368.301  2.542E+09  5.034E+09
   6    0.300   19.950    4.100     0.375    10.162   353.510  2.022E+09  4.469E+09
   7    0.367   24.050    4.100     0.375     9.009   335.102  1.549E+09  3.953E+09
   8    0.433   28.150    4.100     0.375     7.795   306.314  1.051E+09  3.378E+09
   9    0.500   32.250    4.100     0.375     6.549   272.375  6.410E+08  2.685E+09
  10    0.567   36.350    4.100     0.375     5.359   245.485  3.782E+08  2.170E+09
  11    0.633   40.450    4.100     0.375     4.189   201.195  2.151E+08  1.486E+09
  12    0.700   44.550    4.100     0.375     3.144   167.837  1.180E+08  1.114E+09
  13    0.767   48.650    4.100     0.375     2.319   140.582  8.396E+07  7.559E+08
  14    0.833   52.750    4.100     0.375     1.526   107.471  5.498E+07  4.849E+08
  15    0.889   56.167    2.733     0.375     0.863    90.806  3.717E+07  3.758E+08
  16    0.933   58.900    2.733     0.375     0.370    70.842  2.545E+07  2.735E+08
  17    0.978   61.633    2.733     0.375     0.106    48.355  7.887E+06  8.728E+07


Requested Outputs:


  Col  Parameter  Units
  ---  ---------  -----
   0   Time       (s)       
   1   PtfmTAxi   (m/s^2)   
   2   PtfmTAyi   (m/s^2)   
   3   PtfmTAzi   (m/s^2)   
   4   PtfmRAxi   (deg/s^2) 
   5   PtfmRAyi   (deg/s^2) 
   6   PtfmRAzi   (deg/s^2) 
   7   OoPDefl1   (m)       
   8   IPDefl1    (m)       
   9   TwstDefl1  (deg)     
  10   BldPitch1  (deg)     
  11   Azimuth    (deg)     
  12   RotSpeed   (rpm)     
  13   GenSpeed   (rpm)     
  14   TwHt1TPxi  (m)       
  15   TwHt1TPyi  (m)       
  16   TTDspTwst  (deg)     
  17   PtfmTDxi   (m)       
  18   PtfmTDyi   (m)       
  19   PtfmTDzi   (m)       
  20   PtfmRDxi   (deg)     
  21   PtfmRDyi   (deg)     
  22   PtfmRDzi   (deg)     
  23   Spn2MLxb1  (kN·m)    
  24   Spn2MLyb1  (kN·m)    
  25   RootFxc1   (kN)      
  26   RootFyc1   (kN)      
  27   RootFzc1   (kN)      
  28   RootMxc1   (kN·m)    
  29   RootMyc1   (kN·m)    
  30   RootMzc1   (kN·m)    
  31   RotTorq    (kN·m)    
  32   LSSGagMya  (kN·m)    
  33   LSSGagMza  (kN·m)    
  34   YawBrFxp   (kN)      
  35   YawBrFyp   (kN)      
  36   YawBrFzp   (kN)      
  37   YawBrMxp   (kN·m)    
  38   YawBrMyp   (kN·m)    
  39   YawBrMzp   (kN·m)    
