
These predictions were generated by FAST (v7.02.00d-bjj, 20-Feb-2013) on 21-May-2014 at 21:14:42.
The aerodynamic calculations were made by AeroDyn (v13.00.02a-bjj, 20-Feb-2013).

 FAST certification Test #08: AOC 15/50 with many DOFs with fixed yaw error and steady wind.

Time	LSSGagPxa	TipDxb1	TipDxb2	TipDyb1	TipDyb2	RollDefl1	RollDefl2	PtchDefl1	PtchDefl2	Spn1ALxb1	Spn1ALyb1	HSShftV	TTDspRoll	TTDspPtch	YawBrRVxp	YawBrRVyp	YawBrRAxp	YawBrRAyp	RootFxb1	RootFyb1	Spn2MLxb1	Spn2MLyb1	LSShftFya	LSShftFza	YawBrFxn	YawBrFyn
(s)	(deg)	(m)	(m)	(m)	(m)	(deg)	(deg)	(deg)	(deg)	(m/s^2)	(m/s^2)	(rpm)	(deg)	(deg)	(deg/s)	(deg/s)	(deg/s^2)	(deg/s^2)	(kN)	(kN)	(kN·m)	(kN·m)	(kN)	(kN)	(kN)	(kN)
  10.000	 2.484E+02	 1.050E-02	-7.859E-03	 1.728E-03	-2.722E-03	-2.698E-02	 3.650E-02	 9.952E-02	-2.207E-01	 4.946E+00	 5.413E-01	 1.812E+03	 3.867E-02	 1.052E-01	-4.436E-03	-5.397E-02	-5.052E-01	-1.459E+00	 3.354E-01	 8.489E-01	-3.114E-01	 4.301E-01	 6.044E+00	 2.392E+00	 6.638E+00	-9.254E-02
  10.050	 2.676E+02	 6.119E-03	-8.641E-03	 2.364E-03	-4.884E-03	-3.600E-02	 6.714E-02	 1.141E-02	-2.260E-01	 5.041E+00	 6.037E-01	 1.812E+03	 3.801E-02	 1.015E-01	-2.098E-02	-7.903E-02	-3.463E-01	 1.756E-01	 2.398E-01	 9.436E-01	-3.816E-01	 2.411E-01	 6.457E+00	 1.896E-01	 6.351E+00	-1.292E-01
  10.100	 2.869E+02	 5.904E-04	-5.524E-03	 2.531E-03	-6.413E-03	-3.813E-02	 8.862E-02	-8.722E-02	-1.661E-01	 5.198E+00	 5.867E-01	 1.812E+03	 3.652E-02	 9.722E-02	-3.748E-02	-1.081E-01	-1.383E-01	-1.064E+00	 7.286E-02	 9.049E-01	-3.603E-01	 3.507E-02	 6.217E+00	-1.940E+00	 6.050E+00	-9.955E-02
  10.150	 3.061E+02	-4.988E-04	-3.383E-03	 1.621E-03	-7.611E-03	-2.527E-02	 1.054E-01	-1.054E-01	-1.276E-01	 5.327E+00	 6.413E-01	 1.812E+03	 3.479E-02	 9.219E-02	-3.244E-02	-7.796E-02	-2.630E-01	-8.669E-02	 1.667E-02	 6.971E-01	-2.110E-01	 4.572E-03	 5.210E+00	-3.946E+00	 5.667E+00	-1.242E-01
  10.200	 3.254E+02	 1.077E-04	-4.872E-03	 6.906E-04	-8.176E-03	-1.167E-02	 1.130E-01	-7.366E-02	-1.690E-01	 5.422E+00	 6.788E-01	 1.812E+03	 3.311E-02	 8.775E-02	-2.518E-02	-7.326E-02	 3.909E-01	 1.733E+00	-6.218E-02	 4.227E-01	-8.966E-02	 4.594E-02	 3.745E+00	-5.404E+00	 5.320E+00	-4.138E-02
  10.250	 3.446E+02	-3.737E-03	-6.893E-03	-1.032E-03	-7.657E-03	 1.278E-02	 1.053E-01	-1.392E-01	-2.227E-01	 5.501E+00	 6.696E-01	 1.812E+03	 3.167E-02	 8.502E-02	-3.220E-02	-4.249E-02	 4.554E-01	 1.492E+00	-2.292E-01	-9.473E-03	 2.012E-01	-8.094E-02	 1.704E+00	-6.247E+00	 5.336E+00	-1.234E-02
  10.300	 3.853E+00	-9.336E-03	-5.638E-03	-2.227E-03	-7.178E-03	 2.973E-02	 9.841E-02	-2.416E-01	-2.058E-01	 5.492E+00	 6.309E-01	 1.812E+03	 3.087E-02	 8.522E-02	-5.605E-03	 3.253E-02	 1.261E-01	 1.992E-01	-4.119E-01	-4.172E-01	 3.968E-01	-2.808E-01	-4.051E-01	-6.477E+00	 5.469E+00	 3.324E-02
  10.350	 2.310E+01	-1.048E-02	-2.168E-03	-4.201E-03	-5.899E-03	 5.754E-02	 8.046E-02	-2.616E-01	-1.377E-01	 5.445E+00	 5.971E-01	 1.812E+03	 3.094E-02	 8.755E-02	 1.112E-02	 7.274E-02	 3.606E-01	 1.390E+00	-4.744E-01	-8.850E-01	 6.953E-01	-3.005E-01	-2.519E+00	-5.905E+00	 5.515E+00	 5.975E-02
  10.400	 4.234E+01	-6.439E-03	-9.216E-04	-6.073E-03	-4.323E-03	 8.381E-02	 5.834E-02	-1.856E-01	-1.119E-01	 5.237E+00	 5.923E-01	 1.812E+03	 3.184E-02	 9.250E-02	 2.249E-02	 1.036E-01	 1.459E-01	-8.491E-01	-3.736E-01	-1.287E+00	 9.184E-01	-1.388E-01	-4.389E+00	-4.814E+00	 5.771E+00	 8.030E-02
  10.450	 6.158E+01	-2.280E-03	-3.385E-03	-7.353E-03	-2.043E-03	 1.019E-01	 2.705E-02	-1.019E-01	-1.300E-01	 5.190E+00	 5.603E-01	 1.812E+03	 3.339E-02	 9.735E-02	 4.206E-02	 1.136E-01	 2.313E-01	 8.747E-01	-3.022E-01	-1.570E+00	 1.054E+00	 1.407E-02	-5.748E+00	-3.040E+00	 5.874E+00	 2.781E-02
  10.500	 8.082E+01	-2.733E-03	-5.300E-03	-8.286E-03	-3.943E-04	 1.145E-01	 2.996E-03	-1.287E-01	-2.012E-01	 5.090E+00	 6.041E-01	 1.812E+03	 3.535E-02	 1.019E-01	 3.966E-02	 6.084E-02	 3.726E-01	-1.247E-01	-2.880E-01	-1.765E+00	 1.183E+00	-2.109E-02	-6.541E+00	-1.056E+00	 6.153E+00	 3.337E-02
  10.550	 1.001E+02	-5.299E-03	 1.717E-03	-7.832E-03	 5.070E-04	 1.078E-01	-1.030E-02	-1.929E-01	-8.929E-02	 5.034E+00	 6.208E-01	 1.812E+03	 3.714E-02	 1.044E-01	 1.960E-02	 1.698E-02	-6.058E-01	-1.381E+00	-3.180E-01	-1.732E+00	 1.116E+00	-1.295E-01	-6.416E+00	 1.139E+00	 6.504E+00	-2.918E-02
  10.600	 1.193E+02	-5.484E-03	 9.692E-03	-7.422E-03	 1.655E-03	 1.018E-01	-2.582E-02	-2.045E-01	 8.909E-02	 5.023E+00	 6.144E-01	 1.812E+03	 3.799E-02	 1.049E-01	 1.519E-02	 2.287E-03	-4.517E-01	-1.321E+00	-2.987E-01	-1.606E+00	 1.064E+00	-1.375E-01	-5.701E+00	 3.220E+00	 6.598E+00	-7.451E-02
  10.650	 1.385E+02	-2.586E-03	 9.285E-03	-6.287E-03	 1.918E-03	 8.588E-02	-2.900E-02	-1.470E-01	 1.008E-01	 5.048E+00	 5.766E-01	 1.812E+03	 3.816E-02	 1.033E-01	-4.589E-03	-5.304E-02	-2.270E-01	-2.690E-01	-2.147E-01	-1.305E+00	 8.762E-01	-3.383E-02	-4.251E+00	 4.850E+00	 6.462E+00	-9.198E-02
  10.700	 1.578E+02	-8.455E-04	 2.634E-03	-4.693E-03	 2.674E-03	 6.351E-02	-4.035E-02	-1.116E-01	-5.581E-02	 5.135E+00	 5.937E-01	 1.812E+03	 3.751E-02	 1.005E-01	-2.259E-02	-6.417E-02	-3.914E-01	-8.398E-01	-1.767E-01	-9.034E-01	 6.415E-01	 2.269E-02	-2.399E+00	 6.061E+00	 6.264E+00	-1.168E-01
  10.750	 1.770E+02	-2.270E-03	-8.023E-04	-2.719E-03	 2.111E-03	 3.645E-02	-3.263E-02	-1.124E-01	-1.299E-01	 5.331E+00	 6.179E-01	 1.812E+03	 3.612E-02	 9.608E-02	-2.734E-02	-9.108E-02	 2.101E-01	 1.088E+00	-2.263E-01	-4.412E-01	 3.867E-01	-5.098E-02	-2.618E-01	 6.467E+00	 5.870E+00	-1.129E-01
  10.800	 1.963E+02	-5.723E-03	 4.105E-04	-5.492E-04	 1.144E-03	 4.449E-03	-1.819E-02	-2.375E-01	-7.417E-02	 5.304E+00	 5.999E-01	 1.812E+03	 3.464E-02	 9.205E-02	-3.378E-02	-9.546E-02	 1.798E-01	-4.326E-01	-1.453E-01	 2.840E-02	 1.023E-01	-1.762E-01	 1.919E+00	 6.322E+00	 5.674E+00	-8.225E-02
  10.850	 2.155E+02	-2.291E-04	-9.572E-04	 1.413E-04	-1.865E-04	-5.037E-03	 9.974E-04	-1.228E-01	-8.152E-02	 5.344E+00	 6.325E-01	 1.812E+03	 3.327E-02	 8.817E-02	-3.077E-02	-6.168E-02	-5.362E-01	-1.487E-01	 2.111E-02	 3.568E-01	-1.254E-02	 4.366E-02	 3.768E+00	 5.307E+00	 5.536E+00	-5.086E-02
  10.900	 2.348E+02	 8.161E-03	-6.684E-03	 1.500E-03	-1.745E-03	-2.308E-02	 2.293E-02	 8.099E-02	-1.913E-01	 5.456E+00	 6.601E-01	 1.812E+03	 3.175E-02	 8.595E-02	-1.827E-02	-5.911E-03	 5.223E-01	 1.514E+00	 1.346E-01	 7.232E-01	-2.762E-01	 3.720E-01	 5.321E+00	 3.745E+00	 5.411E+00	-9.662E-03
  10.950	 2.540E+02	 8.837E-03	-1.088E-02	 1.812E-03	-3.103E-03	-2.759E-02	 4.188E-02	 8.955E-02	-2.779E-01	 5.439E+00	 6.792E-01	 1.812E+03	 3.117E-02	 8.659E-02	-5.575E-03	 2.687E-02	 3.797E-01	 8.171E-01	 1.786E-01	 8.710E-01	-3.037E-01	 3.740E-01	 6.172E+00	 1.806E+00	 5.494E+00	 4.981E-02
  11.000	 2.732E+02	 2.440E-03	-8.850E-03	 2.671E-03	-5.338E-03	-4.049E-02	 7.350E-02	-6.663E-02	-2.312E-01	 5.375E+00	 6.497E-01	 1.812E+03	 3.134E-02	 8.931E-02	 1.116E-02	 8.549E-02	 2.507E-01	 9.721E-01	 1.352E-01	 9.585E-01	-4.028E-01	 9.924E-02	 6.460E+00	-3.961E-01	 5.595E+00	 5.014E-02
  11.050	 2.925E+02	-1.655E-03	-3.882E-03	 2.418E-03	-6.731E-03	-3.684E-02	 9.320E-02	-1.421E-01	-1.304E-01	 5.330E+00	 6.176E-01	 1.812E+03	 3.215E-02	 9.351E-02	 2.408E-02	 7.593E-02	 5.216E-01	 4.871E-01	 3.442E-02	 8.603E-01	-3.240E-01	-4.992E-02	 5.982E+00	-2.499E+00	 5.745E+00	 6.775E-02
  11.100	 3.117E+02	-3.416E-04	-2.229E-03	 1.410E-03	-7.980E-03	-2.199E-02	 1.104E-01	-9.051E-02	-1.140E-01	 5.229E+00	 5.500E-01	 1.812E+03	 3.381E-02	 9.822E-02	 3.295E-02	 8.453E-02	-1.767E-01	-1.787E+00	-1.933E-02	 6.399E-01	-1.813E-01	 2.110E-02	 4.883E+00	-4.436E+00	 6.068E+00	 2.893E-02
  11.150	 3.310E+02	 3.642E-04	-4.242E-03	 2.460E-04	-8.095E-03	-5.251E-03	 1.117E-01	-6.221E-02	-1.618E-01	 5.077E+00	 5.951E-01	 1.812E+03	 3.568E-02	 1.015E-01	 3.867E-02	 6.132E-02	-5.891E-01	-9.645E-01	-6.290E-02	 3.160E-01	-2.378E-02	 6.366E-02	 3.223E+00	-5.721E+00	 6.232E+00	 1.142E-02
  11.200	 3.502E+02	-3.555E-03	-5.949E-03	-1.560E-03	-7.647E-03	 2.013E-02	 1.051E-01	-1.380E-01	-2.095E-01	 5.052E+00	 6.135E-01	 1.812E+03	 3.688E-02	 1.031E-01	 2.035E-02	 2.349E-02	 2.609E-01	 5.354E-01	-1.898E-01	-1.379E-01	 2.725E-01	-7.443E-02	 1.081E+00	-6.434E+00	 6.367E+00	-3.790E-02
  11.250	 9.452E+00	-8.155E-03	-4.067E-03	-2.808E-03	-6.939E-03	 3.768E-02	 9.500E-02	-2.271E-01	-1.775E-01	 5.005E+00	 6.193E-01	 1.812E+03	 3.774E-02	 1.037E-01	 7.218E-03	-1.981E-02	-3.747E-01	-1.179E+00	-3.197E-01	-5.576E-01	 4.662E-01	-2.397E-01	-1.059E+00	-6.405E+00	 6.538E+00	-6.289E-02
  11.300	 2.869E+01	-8.190E-03	-1.242E-03	-5.008E-03	-5.443E-03	 6.887E-02	 7.400E-02	-2.174E-01	-1.215E-01	 5.105E+00	 6.381E-01	 1.812E+03	 3.779E-02	 1.020E-01	-5.366E-03	-3.626E-02	-3.596E-01	 1.724E-03	-3.956E-01	-1.038E+00	 7.933E-01	-2.150E-01	-3.170E+00	-5.640E+00	 6.380E+00	-1.117E-01
  11.350	 4.794E+01	-4.907E-03	-1.381E-03	-6.499E-03	-3.776E-03	 8.986E-02	 5.057E-02	-1.533E-01	-1.241E-01	 5.117E+00	 6.288E-01	 1.812E+03	 3.703E-02	 9.946E-02	-2.344E-02	-7.973E-02	-8.836E-02	-9.417E-01	-3.421E-01	-1.385E+00	 9.605E-01	-8.264E-02	-4.876E+00	-4.322E+00	 6.150E+00	-9.866E-02
  11.400	 6.718E+01	-3.165E-03	-5.205E-03	-7.692E-03	-1.225E-03	 1.065E-01	 1.443E-02	-1.257E-01	-2.085E-01	 5.242E+00	 6.455E-01	 1.812E+03	 3.595E-02	 9.577E-02	-2.358E-02	-6.313E-02	-4.631E-01	-8.247E-01	-3.186E-01	-1.653E+00	 1.107E+00	-2.705E-02	-6.086E+00	-2.429E+00	 5.895E+00	-1.361E-01
  11.450	 8.642E+01	-4.815E-03	-3.615E-03	-8.174E-03	-2.783E-04	 1.130E-01	 1.790E-03	-1.689E-01	-1.522E-01	 5.367E+00	 6.186E-01	 1.812E+03	 3.460E-02	 9.165E-02	-2.185E-02	-7.441E-02	 9.921E-02	 1.061E+00	-3.708E-01	-1.771E+00	 1.176E+00	-9.856E-02	-6.568E+00	-4.216E-01	 5.562E+00	-6.576E-02
  11.500	 1.057E+02	-6.724E-03	 4.809E-03	-7.658E-03	 9.095E-04	 1.053E-01	-1.522E-02	-2.196E-01	-8.589E-04	 5.437E+00	 5.942E-01	 1.812E+03	 3.309E-02	 8.825E-02	-3.489E-02	-5.883E-02	 4.249E-01	 1.466E+00	-3.913E-01	-1.699E+00	 1.105E+00	-1.774E-01	-6.235E+00	 1.775E+00	 5.518E+00	-4.196E-02
  11.550	 1.249E+02	-5.375E-03	 9.719E-03	-7.142E-03	 1.714E-03	 9.790E-02	-2.688E-02	-2.008E-01	 8.063E-02	 5.426E+00	 6.360E-01	 1.812E+03	 3.194E-02	 8.715E-02	-1.648E-02	-1.972E-03	 7.958E-02	 2.478E-01	-3.274E-01	-1.534E+00	 1.023E+00	-1.299E-01	-5.332E+00	 3.693E+00	 5.582E+00	 4.908E-03
  11.600	 1.441E+02	-2.122E-03	 6.096E-03	-5.804E-03	 2.222E-03	 7.909E-02	-3.361E-02	-1.376E-01	 2.636E-02	 5.350E+00	 6.338E-01	 1.812E+03	 3.143E-02	 8.780E-02	-2.176E-03	 3.706E-02	 3.034E-01	 1.296E+00	-2.164E-01	-1.194E+00	 8.026E-01	-1.641E-02	-3.751E+00	 5.214E+00	 5.535E+00	 3.550E-02
  11.650	 1.634E+02	-1.184E-03	-3.403E-04	-4.218E-03	 2.733E-03	 5.684E-02	-4.087E-02	-1.178E-01	-1.015E-01	 5.304E+00	 6.709E-01	 1.812E+03	 3.163E-02	 9.097E-02	 8.522E-03	 6.882E-02	 1.794E-01	-7.461E-01	-1.997E-01	-7.838E-01	 5.811E-01	 1.171E-02	-1.859E+00	 6.242E+00	 5.676E+00	 7.063E-02
  11.700	 1.826E+02	-3.674E-03	-1.801E-03	-1.883E-03	 1.885E-03	 2.481E-02	-2.920E-02	-1.351E-01	-1.394E-01	 5.376E+00	 6.714E-01	 1.812E+03	 3.257E-02	 9.446E-02	 3.138E-02	 9.396E-02	 2.285E-01	 9.295E-01	-3.280E-01	-2.802E-01	 2.706E-01	-7.483E-02	 3.652E-01	 6.493E+00	 5.704E+00	 2.724E-02
  11.750	 2.019E+02	-4.812E-03	 5.934E-04	-3.965E-04	 9.339E-04	 3.127E-03	-1.520E-02	-1.878E-01	-6.866E-02	 5.295E+00	 6.436E-01	 1.812E+03	 3.409E-02	 9.822E-02	 3.490E-02	 5.602E-02	 5.285E-01	 5.239E-01	-2.169E-01	 1.159E-01	 9.266E-02	-1.197E-01	 2.451E+00	 6.142E+00	 5.926E+00	 5.149E-02
  11.800	 2.211E+02	 2.170E-03	-1.199E-03	 5.896E-04	-7.863E-04	-1.146E-02	 9.325E-03	-8.034E-02	-9.008E-02	 5.062E+00	 5.957E-01	 1.812E+03	 3.575E-02	 1.010E-01	 1.959E-02	 2.934E-02	-4.312E-01	-1.065E+00	 1.279E-01	 4.777E-01	-9.919E-02	 1.316E-01	 4.281E+00	 4.903E+00	 6.307E+00	-5.310E-03
  11.850	 2.404E+02	 9.381E-03	-6.422E-03	 1.700E-03	-2.142E-03	-2.650E-02	 2.852E-02	 8.112E-02	-1.856E-01	 5.022E+00	 5.528E-01	 1.812E+03	 3.680E-02	 1.025E-01	 2.239E-02	 2.898E-02	-3.329E-01	-1.043E+00	 2.871E-01	 7.943E-01	-3.112E-01	 3.978E-01	 5.685E+00	 3.231E+00	 6.455E+00	-4.563E-02
  11.900	 2.596E+02	 8.606E-03	-9.130E-03	 1.978E-03	-3.896E-03	-2.980E-02	 5.309E-02	 8.951E-02	-2.419E-01	 5.090E+00	 6.037E-01	 1.812E+03	 3.746E-02	 1.024E-01	 6.501E-03	-2.093E-02	-2.140E-01	-2.687E-01	 1.875E-01	 9.097E-01	-3.272E-01	 3.620E-01	 6.346E+00	 1.142E+00	 6.408E+00	-7.007E-02
  11.950	 2.788E+02	 2.267E-03	-6.677E-03	 2.686E-03	-5.928E-03	-4.049E-02	 8.169E-02	-6.169E-02	-1.927E-01	 5.100E+00	 5.631E-01	 1.812E+03	 3.744E-02	 1.013E-01	-9.005E-03	-2.920E-02	-4.088E-01	-1.155E+00	 1.296E-01	 9.536E-01	-4.018E-01	 9.493E-02	 6.438E+00	-1.065E+00	 6.315E+00	-9.923E-02
  12.000	 2.981E+02	-6.391E-04	-3.071E-03	 2.050E-03	-7.131E-03	-3.183E-02	 9.879E-02	-1.291E-01	-1.159E-01	 5.165E+00	 6.549E-01	 1.812E+03	 3.668E-02	 9.835E-02	-1.479E-02	-6.361E-02	 2.159E-01	 1.232E+00	 9.531E-02	 7.909E-01	-2.771E-01	-1.415E-02	 5.677E+00	-3.122E+00	 5.967E+00	-1.155E-01
  12.050	 3.173E+02	 7.690E-04	-3.534E-03	 1.088E-03	-8.189E-03	-1.739E-02	 1.132E-01	-6.570E-02	-1.439E-01	 5.252E+00	 6.186E-01	 1.812E+03	 3.571E-02	 9.524E-02	-2.567E-02	-8.639E-02	 1.571E-01	-4.156E-01	-2.440E-03	 5.548E-01	-1.484E-01	 6.027E-02	 4.438E+00	-4.908E+00	 5.835E+00	-9.026E-02
  12.100	 3.366E+02	-9.329E-04	-6.115E-03	-3.151E-04	-7.856E-03	 2.814E-03	 1.082E-01	-8.066E-02	-2.034E-01	 5.308E+00	 6.657E-01	 1.812E+03	 3.458E-02	 9.155E-02	-3.093E-02	-7.112E-02	-6.642E-01	-6.461E-01	-1.449E-01	 1.790E-01	 7.322E-02	 2.119E-02	 2.592E+00	-5.970E+00	 5.754E+00	-7.285E-02
  12.150	 3.558E+02	-6.637E-03	-6.620E-03	-1.825E-03	-7.461E-03	 2.403E-02	 1.024E-01	-1.914E-01	-2.228E-01	 5.412E+00	 6.530E-01	 1.812E+03	 3.301E-02	 8.876E-02	-2.101E-02	-1.957E-02	 3.286E-01	 1.027E+00	-3.244E-01	-2.551E-01	 3.281E-01	-1.847E-01	 4.603E-01	-6.495E+00	 5.599E+00	-3.627E-02
  12.200	 1.505E+01	-1.060E-02	-3.609E-03	-3.245E-03	-6.529E-03	 4.386E-02	 8.932E-02	-2.732E-01	-1.653E-01	 5.409E+00	 6.169E-01	 1.812E+03	 3.206E-02	 8.807E-02	-1.522E-02	-4.446E-03	 3.799E-01	 1.058E+00	-4.283E-01	-6.857E-01	 5.514E-01	-3.210E-01	-1.646E+00	-6.212E+00	 5.568E+00	 2.308E-02
  12.250	 3.429E+01	-8.681E-03	-1.068E-03	-5.441E-03	-4.978E-03	 7.495E-02	 6.754E-02	-2.279E-01	-1.153E-01	 5.383E+00	 6.071E-01	 1.812E+03	 3.171E-02	 8.938E-02	-1.422E-03	 5.315E-02	 1.270E-01	 5.572E-01	-4.341E-01	-1.144E+00	 8.561E-01	-2.261E-01	-3.679E+00	-5.335E+00	 5.608E+00	 3.223E-02
  12.300	 5.353E+01	-4.040E-03	-1.920E-03	-6.775E-03	-3.202E-03	 9.384E-02	 4.267E-02	-1.322E-01	-1.282E-01	 5.351E+00	 5.655E-01	 1.812E+03	 3.188E-02	 9.193E-02	 1.325E-02	 5.188E-02	 5.962E-01	 9.339E-01	-3.584E-01	-1.453E+00	 9.888E-01	-4.409E-02	-5.220E+00	-3.825E+00	 5.648E+00	 5.722E-02
  12.350	 7.278E+01	-2.679E-03	-6.280E-03	-8.012E-03	-7.053E-04	 1.108E-01	 6.405E-03	-1.244E-01	-2.574E-01	 5.207E+00	 6.362E-01	 1.812E+03	 3.301E-02	 9.559E-02	 2.285E-02	 6.329E-02	-4.181E-02	-1.559E+00	-2.886E-01	-1.712E+00	 1.147E+00	-1.357E-02	-6.322E+00	-1.900E+00	 5.906E+00	 3.726E-02
  12.400	 9.202E+01	-4.538E-03	-1.991E-03	-8.046E-03	-4.603E-05	 1.110E-01	-2.026E-03	-1.689E-01	-1.421E-01	 5.151E+00	 6.319E-01	 1.812E+03	 3.454E-02	 9.837E-02	 3.320E-02	 5.828E-02	-5.645E-01	-8.297E-01	-3.346E-01	-1.760E+00	 1.146E+00	-9.299E-02	-6.551E+00	 1.826E-01	 6.058E+00	 2.781E-02
  12.450	 1.113E+02	-5.929E-03	 7.298E-03	-7.625E-03	 1.331E-03	 1.048E-01	-2.062E-02	-2.082E-01	 6.709E-02	 5.124E+00	 5.824E-01	 1.812E+03	 3.562E-02	 1.002E-01	 2.228E-02	 3.761E-02	 3.728E-01	 7.951E-01	-3.352E-01	-1.671E+00	 1.097E+00	-1.513E-01	-6.070E+00	 2.384E+00	 6.199E+00	-1.344E-02
  12.500	 1.305E+02	-3.900E-03	 1.008E-02	-6.869E-03	 1.757E-03	 9.404E-02	-2.717E-02	-1.729E-01	 9.975E-02	 5.100E+00	 6.070E-01	 1.812E+03	 3.670E-02	 1.017E-01	 1.469E-02	 4.898E-03	-2.254E-01	-8.968E-01	-2.581E-01	-1.452E+00	 9.718E-01	-7.959E-02	-4.936E+00	 4.196E+00	 6.413E+00	-3.428E-02
  12.550	 1.497E+02	-1.173E-03	 4.873E-03	-5.359E-03	 2.489E-03	 7.281E-02	-3.791E-02	-1.206E-01	-1.853E-02	 5.090E+00	 5.931E-01	 1.812E+03	 3.721E-02	 1.014E-01	 4.477E-03	-5.980E-03	-2.963E-01	 1.119E-01	-1.655E-01	-1.077E+00	 7.333E-01	 1.315E-02	-3.201E+00	 5.625E+00	 6.339E+00	-9.091E-02
  12.600	 1.690E+02	-1.415E-03	-6.301E-05	-3.672E-03	 2.494E-03	 4.910E-02	-3.770E-02	-1.250E-01	-1.034E-01	 5.091E+00	 5.958E-01	 1.812E+03	 3.702E-02	 1.004E-01	-1.102E-02	-5.332E-02	-9.253E-02	-1.048E+00	-2.456E-01	-6.348E-01	 5.111E-01	 4.816E-03	-1.188E+00	 6.408E+00	 6.192E+00	-8.819E-02
  12.650	 1.882E+02	-4.986E-03	-2.036E-05	-1.136E-03	 1.492E-03	 1.304E-02	-2.333E-02	-2.097E-01	-9.150E-02	 5.178E+00	 5.799E-01	 1.812E+03	 3.652E-02	 9.795E-02	-1.352E-02	-4.379E-02	-5.478E-01	-1.397E+00	-1.715E-01	-1.309E-01	 1.650E-01	-1.507E-01	 1.057E+00	 6.483E+00	 6.046E+00	-1.320E-01
  12.700	 2.075E+02	-2.712E-03	 7.592E-04	-2.784E-04	 5.056E-04	 1.825E-03	-9.042E-03	-1.334E-01	-6.007E-02	 5.374E+00	 6.204E-01	 1.812E+03	 3.561E-02	 9.446E-02	-1.472E-02	-6.093E-02	-3.432E-02	 1.027E+00	-1.929E-01	 2.088E-01	 7.089E-02	-3.100E-02	 3.023E+00	 5.837E+00	 5.736E+00	-8.024E-02
  12.750	 2.267E+02	 5.293E-03	-3.514E-03	 1.018E-03	-1.267E-03	-1.662E-02	 1.604E-02	 1.280E-02	-1.367E-01	 5.342E+00	 6.376E-01	 1.812E+03	 3.427E-02	 9.122E-02	-3.398E-02	-6.626E-02	 4.058E-01	 1.364E+00	 9.163E-02	 5.912E-01	-1.861E-01	 2.622E-01	 4.750E+00	 4.425E+00	 5.685E+00	-6.434E-02
  12.800	 2.460E+02	 9.456E-03	-9.259E-03	 1.727E-03	-2.414E-03	-2.710E-02	 3.231E-02	 7.398E-02	-2.421E-01	 5.275E+00	 6.146E-01	 1.812E+03	 3.308E-02	 8.961E-02	-2.089E-02	-2.091E-02	-8.402E-02	-3.078E-01	 3.021E-01	 8.272E-01	-3.084E-01	 3.901E-01	 5.914E+00	 2.662E+00	 5.737E+00	-1.706E-02
  12.850	 2.652E+02	 5.898E-03	-1.020E-02	 2.277E-03	-4.477E-03	-3.447E-02	 6.146E-02	 1.942E-02	-2.549E-01	 5.375E+00	 6.784E-01	 1.812E+03	 3.220E-02	 8.901E-02	-1.158E-02	 1.253E-02	 2.519E-01	 1.386E+00	 1.594E-01	 9.321E-01	-3.625E-01	 2.436E-01	 6.405E+00	 5.134E-01	 5.601E+00	 9.974E-03
  12.900	 2.844E+02	-1.465E-05	-6.315E-03	 2.663E-03	-6.197E-03	-3.984E-02	 8.555E-02	-9.316E-02	-1.825E-01	 5.408E+00	 5.946E-01	 1.812E+03	 3.186E-02	 9.079E-02	-2.902E-03	 3.635E-02	 1.803E-01	-7.666E-01	 1.179E-02	 9.260E-01	-3.761E-01	 1.622E-02	 6.301E+00	-1.629E+00	 5.664E+00	 5.736E-02
  12.950	 3.037E+02	-1.482E-03	-2.736E-03	 1.820E-03	-7.457E-03	-2.824E-02	 1.033E-01	-1.312E-01	-1.121E-01	 5.361E+00	 6.273E-01	 1.812E+03	 3.226E-02	 9.297E-02	 2.044E-02	 7.337E-02	 1.675E-01	 7.498E-01	 1.113E-02	 7.318E-01	-2.332E-01	-3.666E-02	 5.377E+00	-3.669E+00	 5.642E+00	 2.163E-02
  13.000	 3.229E+02	 1.389E-04	-3.491E-03	 8.978E-04	-8.250E-03	-1.473E-02	 1.141E-01	-7.865E-02	-1.421E-01	 5.250E+00	 6.000E-01	 1.812E+03	 3.330E-02	 9.575E-02	 2.801E-02	 4.499E-02	 5.431E-01	 8.022E-01	-2.592E-02	 4.766E-01	-1.206E-01	 4.274E-02	 4.001E+00	-5.257E+00	 5.768E+00	 5.898E-02
  13.050	 3.422E+02	-2.026E-03	-5.780E-03	-8.521E-04	-7.760E-03	 1.026E-02	 1.068E-01	-1.056E-01	-2.021E-01	 5.178E+00	 6.119E-01	 1.812E+03	 3.460E-02	 9.802E-02	 1.586E-02	 2.737E-02	-1.158E-01	-2.773E-01	-1.579E-01	 5.066E-02	 1.620E-01	-1.805E-02	 1.992E+00	-6.186E+00	 6.110E+00	 1.480E-02
  13.100	 1.406E+00	-6.913E-03	-5.292E-03	-2.187E-03	-7.338E-03	 2.919E-02	 1.006E-01	-1.943E-01	-2.012E-01	 5.122E+00	 6.094E-01	 1.812E+03	 3.569E-02	 9.998E-02	 2.356E-02	 3.854E-02	-3.395E-01	-1.193E+00	-3.185E-01	-3.717E-01	 3.744E-01	-1.934E-01	-1.536E-01	-6.529E+00	 6.331E+00	-1.903E-02
  13.150	 2.065E+01	-8.995E-03	-2.190E-03	-4.024E-03	-6.114E-03	 5.494E-02	 8.346E-02	-2.372E-01	-1.393E-01	 5.102E+00	 6.136E-01	 1.812E+03	 3.656E-02	 1.008E-01	 1.469E-02	 7.121E-03	-1.027E-01	 4.816E-02	-3.892E-01	-8.363E-01	 6.558E-01	-2.541E-01	-2.293E+00	-6.022E+00	 6.306E+00	-4.793E-02
  13.200	 3.989E+01	-6.404E-03	-8.077E-04	-5.995E-03	-4.524E-03	 8.263E-02	 6.114E-02	-1.878E-01	-1.106E-01	 5.050E+00	 6.347E-01	 1.812E+03	 3.698E-02	 1.010E-01	-2.693E-05	-7.858E-03	-3.528E-01	-1.213E+00	-3.456E-01	-1.259E+00	 9.099E-01	-1.437E-01	-4.227E+00	-4.974E+00	 6.289E+00	-7.813E-02
  13.250	 5.913E+01	-2.981E-03	-2.620E-03	-7.198E-03	-2.410E-03	 9.970E-02	 3.229E-02	-1.152E-01	-1.123E-01	 5.168E+00	 5.923E-01	 1.812E+03	 3.679E-02	 9.938E-02	-2.590E-03	-3.418E-02	 8.215E-02	 8.994E-01	-3.170E-01	-1.541E+00	 1.039E+00	-9.175E-03	-5.614E+00	-3.254E+00	 6.018E+00	-1.127E-01
  13.300	 7.837E+01	-3.465E-03	-5.523E-03	-8.226E-03	-4.580E-04	 1.137E-01	 3.430E-03	-1.425E-01	-2.233E-01	 5.234E+00	 6.367E-01	 1.812E+03	 3.630E-02	 9.723E-02	-1.597E-02	-7.006E-02	 1.946E-01	-3.163E-01	-3.150E-01	-1.758E+00	 1.182E+00	-4.670E-02	-6.495E+00	-1.278E+00	 5.941E+00	-9.000E-02
  13.350	 9.762E+01	-5.931E-03	 6.866E-04	-7.845E-03	 2.987E-04	 1.080E-01	-7.397E-03	-2.018E-01	-1.105E-01	 5.282E+00	 6.373E-01	 1.812E+03	 3.552E-02	 9.411E-02	-2.724E-02	-6.674E-02	-6.885E-01	-7.316E-01	-3.702E-01	-1.739E+00	 1.124E+00	-1.453E-01	-6.449E+00	 8.674E-01	 5.909E+00	-8.796E-02
  13.400	 1.169E+02	-6.353E-03	 8.997E-03	-7.451E-03	 1.576E-03	 1.023E-01	-2.434E-02	-2.189E-01	 8.977E-02	 5.328E+00	 6.079E-01	 1.812E+03	 3.408E-02	 9.129E-02	-2.174E-02	-3.026E-02	 1.620E-01	 6.559E-01	-3.528E-01	-1.625E+00	 1.076E+00	-1.662E-01	-5.807E+00	 2.961E+00	 5.760E+00	-5.767E-02
  13.450	 1.361E+02	-3.428E-03	 9.051E-03	-6.444E-03	 1.840E-03	 8.812E-02	-2.786E-02	-1.616E-01	 9.832E-02	 5.330E+00	 6.139E-01	 1.812E+03	 3.301E-02	 8.997E-02	-1.943E-02	-2.066E-02	 2.188E-01	 6.125E-01	-2.653E-01	-1.351E+00	 9.057E-01	-6.075E-02	-4.466E+00	 4.622E+00	 5.688E+00	-8.101E-04
  13.500	 1.553E+02	-1.105E-03	 2.184E-03	-4.896E-03	 2.696E-03	 6.639E-02	-4.080E-02	-1.158E-01	-6.979E-02	 5.337E+00	 6.510E-01	 1.812E+03	 3.229E-02	 9.017E-02	-9.586E-03	 3.147E-02	 1.435E-01	 6.119E-01	-2.001E-01	-9.601E-01	 6.707E-01	 1.752E-02	-2.669E+00	 5.909E+00	 5.647E+00	 1.361E-02
  13.550	 1.746E+02	-2.037E-03	-1.800E-03	-3.066E-03	 2.312E-03	 4.091E-02	-3.543E-02	-1.243E-01	-1.480E-01	 5.140E+00	 6.833E-01	 1.812E+03	 3.202E-02	 9.149E-02	 3.415E-03	 2.668E-02	 5.933E-01	 1.124E+00	-2.005E-01	-4.967E-01	 4.526E-01	-1.262E-02	-5.783E-01	 6.440E+00	 5.618E+00	 4.251E-02
  13.600	 1.938E+02	-5.929E-03	-3.592E-04	-6.794E-04	 1.322E-03	 6.047E-03	-2.070E-02	-2.502E-01	-8.887E-02	 5.236E+00	 6.370E-01	 1.812E+03	 3.266E-02	 9.402E-02	 1.387E-02	 4.055E-02	 8.641E-02	-1.273E+00	-1.198E-01	-2.126E-02	 1.132E-01	-1.935E-01	 1.625E+00	 6.399E+00	 5.812E+00	 4.050E-02
  13.650	 2.131E+02	-1.341E-03	-2.901E-04	 2.101E-06	 6.585E-05	-2.862E-03	-2.630E-03	-1.355E-01	-7.163E-02	 5.233E+00	 6.324E-01	 1.812E+03	 3.381E-02	 9.613E-02	 2.530E-02	 4.925E-02	-5.629E-01	-8.057E-01	-3.127E-02	 3.076E-01	 1.707E-02	 4.979E-03	 3.529E+00	 5.505E+00	 5.953E+00	 3.388E-02
  13.700	 2.323E+02	 7.405E-03	-4.713E-03	 1.401E-03	-1.652E-03	-2.159E-02	 2.150E-02	 7.017E-02	-1.580E-01	 5.248E+00	 6.243E-01	 1.812E+03	 3.467E-02	 9.784E-02	 2.170E-02	 4.375E-02	 4.287E-01	 9.143E-01	 1.145E-01	 6.904E-01	-2.569E-01	 3.464E-01	 5.169E+00	 3.977E+00	 6.064E+00	 3.022E-03
  13.750	 2.516E+02	 9.564E-03	-8.998E-03	 1.784E-03	-2.959E-03	-2.743E-02	 3.979E-02	 9.405E-02	-2.440E-01	 5.127E+00	 5.959E-01	 1.812E+03	 3.577E-02	 9.973E-02	 1.677E-02	 1.654E-02	-1.289E-01	-6.539E-01	 2.570E-01	 8.639E-01	-3.078E-01	 3.974E-01	 6.130E+00	 2.069E+00	 6.288E+00	-1.136E-02
  13.800	 2.708E+02	 4.337E-03	-8.093E-03	 2.541E-03	-5.206E-03	-3.871E-02	 7.165E-02	-3.162E-02	-2.160E-01	 5.083E+00	 6.025E-01	 1.812E+03	 3.649E-02	 1.004E-01	 1.089E-02	 1.694E-02	-2.367E-01	 1.120E-01	 2.136E-01	 9.562E-01	-3.974E-01	 1.693E-01	 6.476E+00	-1.532E-01	 6.272E+00	-6.835E-02
  13.850	 2.900E+02	-8.504E-05	-4.165E-03	 2.445E-03	-6.633E-03	-3.708E-02	 9.176E-02	-1.063E-01	-1.379E-01	 5.122E+00	 5.853E-01	 1.812E+03	 3.667E-02	 1.003E-01	-2.145E-03	-3.270E-02	 2.301E-02	-6.867E-01	 7.489E-02	 8.810E-01	-3.414E-01	 8.562E-03	 6.097E+00	-2.283E+00	 6.171E+00	-7.183E-02
  13.900	 3.093E+02	 1.993E-04	-2.657E-03	 1.445E-03	-7.853E-03	-2.258E-02	 1.086E-01	-8.389E-02	-1.195E-01	 5.173E+00	 5.883E-01	 1.812E+03	 3.663E-02	 9.901E-02	-6.267E-03	-2.865E-02	-5.708E-01	-1.706E+00	 1.613E-02	 6.609E-01	-1.897E-01	 3.553E-02	 5.021E+00	-4.254E+00	 6.119E+00	-1.211E-01
  13.950	 3.285E+02	 5.942E-04	-4.657E-03	 4.290E-04	-8.144E-03	-7.919E-03	 1.125E-01	-6.161E-02	-1.671E-01	 5.188E+00	 6.541E-01	 1.812E+03	 3.614E-02	 9.633E-02	-8.268E-03	-5.091E-02	-3.095E-01	 2.262E-01	-5.006E-02	 3.617E-01	-5.423E-02	 6.771E-02	 3.445E+00	-5.600E+00	 5.880E+00	-8.347E-02
  14.000	 3.478E+02	-3.741E-03	-6.620E-03	-1.356E-03	-7.644E-03	 1.726E-02	 1.051E-01	-1.421E-01	-2.196E-01	 5.295E+00	 6.666E-01	 1.812E+03	 3.501E-02	 9.324E-02	-2.811E-02	-5.732E-02	 4.244E-01	 1.480E+00	-2.107E-01	-8.671E-02	 2.464E-01	-8.186E-02	 1.339E+00	-6.356E+00	 5.796E+00	-7.515E-02
  14.050	 7.004E+00	-9.147E-03	-5.029E-03	-2.519E-03	-7.039E-03	 3.373E-02	 9.643E-02	-2.420E-01	-1.950E-01	 5.325E+00	 6.415E-01	 1.812E+03	 3.392E-02	 9.150E-02	-2.258E-02	-3.431E-02	-1.039E-01	-2.404E-01	-3.828E-01	-4.954E-01	 4.343E-01	-2.749E-01	-7.753E-01	-6.436E+00	 5.841E+00	-3.464E-02
  14.100	 2.625E+01	-9.801E-03	-1.867E-03	-4.621E-03	-5.627E-03	 6.350E-02	 7.661E-02	-2.464E-01	-1.326E-01	 5.395E+00	 6.202E-01	 1.812E+03	 3.296E-02	 9.039E-02	-1.444E-02	 8.546E-04	 1.296E-01	 1.064E+00	-4.636E-01	-9.701E-01	 7.512E-01	-2.730E-01	-2.879E+00	-5.755E+00	 5.690E+00	-1.309E-02
  14.150	 4.549E+01	-6.076E-03	-1.292E-03	-6.274E-03	-4.027E-03	 8.667E-02	 5.417E-02	-1.765E-01	-1.198E-01	 5.301E+00	 6.053E-01	 1.812E+03	 3.233E-02	 9.118E-02	-1.015E-02	 1.327E-02	 2.440E-01	-5.087E-01	-3.801E-01	-1.339E+00	 9.404E-01	-1.240E-01	-4.646E+00	-4.555E+00	 5.679E+00	 3.930E-02
  14.200	 6.473E+01	-2.973E-03	-4.274E-03	-7.508E-03	-1.588E-03	 1.040E-01	 2.015E-02	-1.188E-01	-1.667E-01	 5.302E+00	 5.945E-01	 1.812E+03	 3.240E-02	 9.246E-02	 1.172E-02	 5.277E-02	 1.545E-02	 3.097E-01	-3.224E-01	-1.613E+00	 1.079E+00	-1.540E-02	-5.927E+00	-2.714E+00	 5.637E+00	 6.866E-03
  14.250	 8.397E+01	-3.815E-03	-4.243E-03	-8.236E-03	-3.532E-04	 1.139E-01	 2.754E-03	-1.484E-01	-1.677E-01	 5.285E+00	 6.016E-01	 1.812E+03	 3.303E-02	 9.429E-02	 2.162E-02	 3.405E-02	 4.990E-01	 9.531E-01	-3.386E-01	-1.769E+00	 1.181E+00	-6.009E-02	-6.558E+00	-7.218E-01	 5.688E+00	 5.494E-02
  14.300	 1.032E+02	-5.894E-03	 3.161E-03	-7.732E-03	 7.541E-04	 1.064E-01	-1.343E-02	-2.040E-01	-4.848E-02	 5.236E+00	 6.075E-01	 1.812E+03	 3.397E-02	 9.609E-02	 1.083E-02	 2.429E-02	 5.622E-02	 8.559E-02	-3.520E-01	-1.714E+00	 1.107E+00	-1.488E-01	-6.324E+00	 1.487E+00	 5.989E+00	 2.072E-02
  14.350	 1.225E+02	-5.214E-03	 9.377E-03	-7.292E-03	 1.725E-03	 9.997E-02	-2.700E-02	-1.992E-01	 7.501E-02	 5.169E+00	 6.285E-01	 1.812E+03	 3.489E-02	 9.801E-02	 2.124E-02	 4.023E-02	-2.136E-01	-7.620E-01	-3.005E-01	-1.569E+00	 1.044E+00	-1.264E-01	-5.511E+00	 3.488E+00	 6.206E+00	-3.693E-03
  14.400	 1.417E+02	-2.117E-03	 7.651E-03	-6.022E-03	 2.089E-03	 8.216E-02	-3.151E-02	-1.380E-01	 6.545E-02	 5.106E+00	 6.000E-01	 1.812E+03	 3.577E-02	 9.925E-02	 1.595E-02	 1.713E-02	-1.067E-01	 1.521E-02	-2.003E-01	-1.243E+00	 8.337E-01	-1.748E-02	-3.977E+00	 5.071E+00	 6.218E+00	-3.007E-02
  14.450	 1.609E+02	-8.599E-04	 1.434E-03	-4.434E-03	 2.696E-03	 5.988E-02	-4.048E-02	-1.116E-01	-7.188E-02	 5.126E+00	 6.135E-01	 1.812E+03	 3.636E-02	 1.002E-01	 6.081E-03	 1.031E-02	-2.949E-01	-1.372E+00	-1.796E-01	-8.357E-01	 6.073E-01	 2.123E-02	-2.090E+00	 6.186E+00	 6.242E+00	-5.407E-02
  14.500	 1.802E+02	-2.878E-03	-8.303E-04	-2.251E-03	 1.952E-03	 3.003E-02	-3.035E-02	-1.183E-01	-1.289E-01	 5.327E+00	 6.119E-01	 1.812E+03	 3.652E-02	 9.948E-02	 5.073E-03	-1.279E-02	 6.173E-02	 9.962E-01	-3.253E-01	-3.440E-01	 3.199E-01	-3.862E-02	 1.155E-01	 6.496E+00	 6.008E+00	-1.047E-01
  14.550	 1.994E+02	-5.093E-03	 9.310E-04	-4.460E-04	 9.989E-04	 3.535E-03	-1.615E-02	-2.044E-01	-6.339E-02	 5.253E+00	 5.897E-01	 1.812E+03	 3.642E-02	 9.813E-02	-6.797E-03	-5.409E-02	 2.515E-01	 1.375E-02	-1.887E-01	 8.230E-02	 9.405E-02	-1.388E-01	 2.243E+00	 6.227E+00	 5.970E+00	-8.071E-02
  14.600	 2.187E+02	 1.205E-03	-9.579E-04	 3.822E-04	-5.558E-04	-8.604E-03	 6.159E-03	-1.015E-01	-8.263E-02	 5.146E+00	 5.884E-01	 1.812E+03	 3.598E-02	 9.570E-02	-2.291E-02	-6.157E-02	-6.604E-01	-8.762E-01	 9.959E-02	 4.261E-01	-5.983E-02	 9.602E-02	 4.074E+00	 5.072E+00	 6.010E+00	-9.028E-02
  14.650	 2.379E+02	 9.057E-03	-6.639E-03	 1.612E-03	-1.976E-03	-2.504E-02	 2.620E-02	 8.293E-02	-1.898E-01	 5.232E+00	 5.969E-01	 1.812E+03	 3.482E-02	 9.325E-02	-1.748E-02	-2.552E-02	-2.762E-02	 1.318E-01	 2.316E-01	 7.654E-01	-2.976E-01	 3.941E-01	 5.538E+00	 3.450E+00	 5.896E+00	-7.024E-02
  14.700	 2.572E+02	 8.881E-03	-1.025E-02	 1.885E-03	-3.526E-03	-2.846E-02	 4.785E-02	 9.601E-02	-2.647E-01	 5.333E+00	 6.621E-01	 1.812E+03	 3.380E-02	 9.162E-02	-1.973E-02	-2.917E-02	 2.076E-01	 8.330E-01	 1.717E-01	 8.911E-01	-3.144E-01	 3.761E-01	 6.267E+00	 1.432E+00	 5.774E+00	-2.154E-02
  14.750	 2.764E+02	 2.091E-03	-8.202E-03	 2.691E-03	-5.639E-03	-4.065E-02	 7.769E-02	-6.869E-02	-2.204E-01	 5.330E+00	 6.182E-01	 1.812E+03	 3.299E-02	 9.140E-02	-1.447E-02	 1.501E-02	 4.323E-03	 9.002E-02	 1.159E-01	 9.561E-01	-4.022E-01	 8.791E-02	 6.450E+00	-7.645E-01	 5.726E+00	-4.615E-03
  14.800	 2.956E+02	-1.654E-03	-3.890E-03	 2.254E-03	-6.907E-03	-3.466E-02	 9.569E-02	-1.471E-01	-1.298E-01	 5.365E+00	 6.521E-01	 1.812E+03	 3.244E-02	 9.177E-02	-1.589E-03	 1.318E-02	 5.937E-01	 1.366E+00	 4.841E-02	 8.241E-01	-2.997E-01	-5.112E-02	 5.811E+00	-2.825E+00	 5.627E+00	 2.520E-02
  14.850	 3.149E+02	-2.229E-04	-3.101E-03	 1.266E-03	-8.090E-03	-1.989E-02	 1.118E-01	-8.557E-02	-1.337E-01	 5.329E+00	 5.745E-01	 1.812E+03	 3.271E-02	 9.344E-02	 5.541E-03	 1.960E-02	 1.977E-01	-1.012E+00	-3.119E-02	 5.964E-01	-1.636E-01	 2.503E-02	 4.649E+00	-4.695E+00	 5.756E+00	 3.357E-02
  14.900	 3.341E+02	-5.892E-04	-5.101E-03	-2.486E-05	-7.959E-03	-1.301E-03	 1.097E-01	-7.531E-02	-1.816E-01	 5.247E+00	 6.145E-01	 1.812E+03	 3.348E-02	 9.476E-02	 1.599E-02	 3.236E-02	-5.953E-01	-8.583E-01	-1.245E-01	 2.458E-01	 2.649E-02	 3.357E-02	 2.892E+00	-5.856E+00	 5.892E+00	 3.193E-02
  14.950	 3.534E+02	-5.216E-03	-6.087E-03	-1.706E-03	-7.563E-03	 2.229E-02	 1.039E-01	-1.666E-01	-2.120E-01	 5.236E+00	 6.130E-01	 1.812E+03	 3.402E-02	 9.602E-02	 1.821E-02	 4.279E-02	 4.174E-01	 8.937E-01	-2.629E-01	-2.005E-01	 3.041E-01	-1.330E-01	 7.445E-01	-6.479E+00	 5.974E+00	 1.134E-02
  15.000	 1.260E+01	-9.286E-03	-3.657E-03	-3.048E-03	-6.724E-03	 4.104E-02	 9.204E-02	-2.498E-01	-1.672E-01	 5.151E+00	 6.025E-01	 1.812E+03	 3.496E-02	 9.786E-02	 1.606E-02	 2.120E-02	 1.653E-02	-2.601E-01	-3.632E-01	-6.278E-01	 5.107E-01	-2.773E-01	-1.386E+00	-6.309E+00	 6.164E+00	 5.543E-03
  15.050	 3.184E+01	-8.062E-03	-1.034E-03	-5.297E-03	-5.188E-03	 7.291E-02	 7.042E-02	-2.160E-01	-1.170E-01	 5.163E+00	 6.188E-01	 1.812E+03	 3.575E-02	 9.903E-02	 1.315E-02	 2.909E-02	-1.993E-01	 1.030E-01	-3.982E-01	-1.102E+00	 8.324E-01	-2.068E-01	-3.471E+00	-5.476E+00	 6.186E+00	-4.899E-02
  15.100	 5.109E+01	-3.983E-03	-1.551E-03	-6.692E-03	-3.461E-03	 9.262E-02	 4.615E-02	-1.334E-01	-1.269E-01	 5.125E+00	 6.009E-01	 1.812E+03	 3.614E-02	 9.957E-02	 4.755E-03	-1.564E-02	 1.056E-01	-4.171E-01	-3.297E-01	-1.428E+00	 9.780E-01	-4.566E-02	-5.095E+00	-4.043E+00	 6.120E+00	-5.693E-02
  15.150	 7.033E+01	-2.608E-03	-5.553E-03	-7.912E-03	-9.091E-04	 1.094E-01	 9.464E-03	-1.199E-01	-2.359E-01	 5.139E+00	 6.556E-01	 1.812E+03	 3.645E-02	 9.919E-02	 3.525E-04	-1.558E-02	-5.096E-01	-1.857E+00	-2.858E-01	-1.693E+00	 1.132E+00	-1.076E-02	-6.240E+00	-2.118E+00	 6.140E+00	-1.046E-01
  15.200	 8.957E+01	-4.657E-03	-2.356E-03	-8.125E-03	-1.757E-04	 1.122E-01	 1.729E-04	-1.683E-01	-1.344E-01	 5.217E+00	 6.245E-01	 1.812E+03	 3.636E-02	 9.726E-02	-1.396E-03	-3.435E-02	-4.310E-01	 8.263E-02	-3.508E-01	-1.768E+00	 1.163E+00	-9.594E-02	-6.567E+00	-6.502E-02	 5.946E+00	-8.257E-02
  15.250	 1.088E+02	-6.519E-03	 6.333E-03	-7.632E-03	 1.166E-03	 1.049E-01	-1.846E-02	-2.185E-01	 4.244E-02	 5.273E+00	 5.798E-01	 1.812E+03	 3.552E-02	 9.481E-02	-2.183E-02	-4.893E-02	 3.824E-01	 1.234E+00	-3.657E-01	-1.684E+00	 1.102E+00	-1.720E-01	-6.143E+00	 2.137E+00	 5.892E+00	-8.147E-02
  15.300	 1.281E+02	-4.773E-03	 9.927E-03	-6.985E-03	 1.725E-03	 9.569E-02	-2.695E-02	-1.897E-01	 8.774E-02	 5.297E+00	 6.189E-01	 1.812E+03	 3.465E-02	 9.326E-02	-1.970E-02	-3.249E-02	-1.175E-01	-3.432E-01	-2.985E-01	-1.489E+00	 9.959E-01	-1.092E-01	-5.108E+00	 3.983E+00	 5.943E+00	-4.593E-02
  15.350	 1.473E+02	-1.674E-03	 5.478E-03	-5.549E-03	 2.370E-03	 7.550E-02	-3.600E-02	-1.292E-01	 2.204E-03	 5.283E+00	 6.161E-01	 1.812E+03	 3.372E-02	 9.193E-02	-1.658E-02	-8.248E-03	 7.773E-02	 1.113E+00	-1.959E-01	-1.129E+00	 7.635E-01	-1.826E-03	-3.440E+00	 5.445E+00	 5.777E+00	-3.418E-02
  15.400	 1.665E+02	-1.331E-03	-2.615E-04	-3.922E-03	 2.602E-03	 5.266E-02	-3.907E-02	-1.214E-01	-1.014E-01	 5.302E+00	 6.503E-01	 1.812E+03	 3.295E-02	 9.220E-02	-1.399E-02	-2.459E-03	 1.623E-01	-7.390E-01	-1.932E-01	-7.085E-01	 5.421E-01	 2.728E-03	-1.500E+00	 6.332E+00	 5.743E+00	 2.054E-02
  15.450	 1.858E+02	-4.752E-03	-1.217E-03	-1.440E-03	 1.695E-03	 1.771E-02	-2.632E-02	-1.898E-01	-1.198E-01	 5.329E+00	 6.514E-01	 1.812E+03	 3.275E-02	 9.271E-02	 4.486E-03	 3.646E-02	-5.891E-02	-1.231E-02	-2.296E-01	-1.990E-01	 2.069E-01	-1.374E-01	 7.379E-01	 6.488E+00	 5.677E+00	-7.082E-03
  15.500	 2.050E+02	-3.996E-03	 1.354E-04	-3.228E-04	 7.511E-04	 2.402E-03	-1.256E-02	-1.600E-01	-7.474E-02	 5.413E+00	 6.605E-01	 1.812E+03	 3.305E-02	 9.372E-02	 1.537E-02	 2.157E-02	 3.781E-01	 8.857E-01	-2.316E-01	 1.653E-01	 8.238E-02	-8.200E-02	 2.758E+00	 5.987E+00	 5.661E+00	 4.612E-02
  15.550	 2.243E+02	 3.838E-03	-2.731E-03	 8.238E-04	-1.033E-03	-1.418E-02	 1.276E-02	-2.615E-02	-1.209E-01	 5.256E+00	 6.442E-01	 1.812E+03	 3.359E-02	 9.477E-02	 4.817E-03	 1.545E-02	 2.646E-01	 6.579E-01	 9.114E-02	 5.392E-01	-1.458E-01	 2.043E-01	 4.533E+00	 4.647E+00	 5.892E+00	 2.344E-02
  15.600	 2.435E+02	 9.539E-03	-7.858E-03	 1.725E-03	-2.285E-03	-2.703E-02	 3.051E-02	 7.701E-02	-2.146E-01	 5.146E+00	 5.855E-01	 1.812E+03	 3.430E-02	 9.651E-02	 1.658E-02	 3.405E-02	-2.107E-01	-8.677E-01	 3.095E-01	 8.143E-01	-3.131E-01	 3.955E-01	 5.821E+00	 2.925E+00	 6.129E+00	 9.281E-03
  15.650	 2.627E+02	 7.142E-03	-9.336E-03	 2.148E-03	-4.244E-03	-3.251E-02	 5.810E-02	 4.858E-02	-2.409E-01	 5.178E+00	 6.321E-01	 1.812E+03	 3.506E-02	 9.772E-02	 1.639E-02	 2.641E-02	-1.465E-02	 3.357E-01	 1.821E-01	 9.264E-01	-3.463E-01	 2.979E-01	 6.392E+00	 7.909E-01	 6.125E+00	-1.546E-02
  15.700	 2.820E+02	 1.037E-03	-6.104E-03	 2.698E-03	-6.119E-03	-4.045E-02	 8.441E-02	-7.777E-02	-1.803E-01	 5.188E+00	 5.647E-01	 1.812E+03	 3.570E-02	 9.915E-02	 7.479E-03	 1.558E-02	-1.955E-01	-1.260E+00	 7.030E-02	 9.423E-01	-3.920E-01	 5.173E-02	 6.376E+00	-1.392E+00	 6.171E+00	-3.341E-02
  15.750	 3.012E+02	-8.574E-04	-2.624E-03	 1.895E-03	-7.337E-03	-2.940E-02	 1.016E-01	-1.236E-01	-1.096E-01	 5.179E+00	 6.346E-01	 1.812E+03	 3.611E-02	 9.910E-02	 1.159E-02	 5.204E-03	-3.020E-02	 6.824E-01	 5.628E-02	 7.558E-01	-2.506E-01	-1.755E-02	 5.511E+00	-3.453E+00	 5.989E+00	-9.178E-02
  15.800	 3.205E+02	 1.057E-03	-3.356E-03	 9.431E-04	-8.271E-03	-1.531E-02	 1.143E-01	-5.901E-02	-1.405E-01	 5.173E+00	 6.159E-01	 1.812E+03	 3.630E-02	 9.842E-02	 7.602E-04	-3.919E-02	 2.878E-01	 6.750E-02	 1.311E-03	 5.098E-01	-1.315E-01	 7.535E-02	 4.188E+00	-5.128E+00	 5.972E+00	-6.684E-02
  15.850	 3.397E+02	-1.141E-03	-5.951E-03	-6.533E-04	-7.798E-03	 7.421E-03	 1.073E-01	-9.011E-02	-2.038E-01	 5.183E+00	 6.558E-01	 1.812E+03	 3.616E-02	 9.658E-02	-1.746E-02	-4.972E-02	-5.552E-01	-6.421E-01	-1.276E-01	 1.027E-01	 1.247E-01	 1.170E-02	 2.239E+00	-6.104E+00	 6.059E+00	-8.799E-02
  15.900	 3.590E+02	-6.923E-03	-6.099E-03	-2.042E-03	-7.397E-03	 2.712E-02	 1.015E-01	-1.955E-01	-2.158E-01	 5.265E+00	 6.511E-01	 1.812E+03	 3.528E-02	 9.455E-02	-1.376E-02	-2.462E-02	-6.523E-02	 9.752E-02	-3.260E-01	-3.250E-01	 3.564E-01	-1.956E-01	 1.008E-01	-6.522E+00	 5.981E+00	-7.587E-02
  15.950	 1.820E+01	-1.016E-02	-2.977E-03	-3.656E-03	-6.287E-03	 4.975E-02	 8.590E-02	-2.605E-01	-1.535E-01	 5.276E+00	 6.278E-01	 1.812E+03	 3.444E-02	 9.310E-02	-1.789E-02	-3.056E-02	 5.417E-02	 3.063E-01	-4.256E-01	-7.709E-01	 6.098E-01	-2.998E-01	-2.014E+00	-6.107E+00	 5.871E+00	-3.515E-02
  16.000	 3.744E+01	-7.748E-03	-9.303E-04	-5.750E-03	-4.729E-03	 7.926E-02	 6.405E-02	-2.110E-01	-1.119E-01	 5.291E+00	 6.241E-01	 1.812E+03	 3.362E-02	 9.258E-02	-1.531E-02	 9.675E-03	-3.319E-02	-3.673E-02	-4.044E-01	-1.210E+00	 8.895E-01	-1.911E-01	-3.988E+00	-5.134E+00	 5.793E+00	-2.057E-02
  16.050	 5.668E+01	-3.625E-03	-2.264E-03	-6.983E-03	-2.776E-03	 9.672E-02	 3.725E-02	-1.264E-01	-1.124E-01	 5.367E+00	 5.702E-01	 1.812E+03	 3.295E-02	 9.241E-02	-5.026E-03	 1.750E-03	 5.854E-01	 1.627E+00	-3.473E-01	-1.499E+00	 1.014E+00	-3.074E-02	-5.423E+00	-3.514E+00	 5.636E+00	 4.266E-03
  16.100	 7.593E+01	-3.287E-03	-5.946E-03	-8.123E-03	-5.641E-04	 1.123E-01	 4.523E-03	-1.388E-01	-2.469E-01	 5.289E+00	 6.360E-01	 1.812E+03	 3.297E-02	 9.340E-02	 3.369E-05	 1.598E-03	 2.709E-01	-8.191E-01	-3.092E-01	-1.738E+00	 1.167E+00	-3.857E-02	-6.421E+00	-1.568E+00	 5.753E+00	 2.560E-02
  16.150	 9.517E+01	-5.436E-03	-5.796E-04	-7.916E-03	 1.251E-04	 1.091E-01	-4.821E-03	-1.883E-01	-1.298E-01	 5.259E+00	 6.467E-01	 1.812E+03	 3.346E-02	 9.415E-02	 8.454E-03	 2.211E-02	-6.601E-01	-1.060E+00	-3.624E-01	-1.749E+00	 1.131E+00	-1.267E-01	-6.501E+00	 5.503E-01	 5.879E+00	 2.336E-02
  16.200	 1.144E+02	-6.137E-03	 8.076E-03	-7.535E-03	 1.510E-03	 1.035E-01	-2.316E-02	-2.128E-01	 8.163E-02	 5.237E+00	 5.960E-01	 1.812E+03	 3.370E-02	 9.496E-02	 1.427E-02	 3.843E-02	 4.433E-01	 1.024E+00	-3.472E-01	-1.646E+00	 1.086E+00	-1.576E-01	-5.936E+00	 2.700E+00	 5.911E+00	 1.293E-02
  16.250	 1.337E+02	-3.436E-03	 9.299E-03	-6.652E-03	 1.805E-03	 9.102E-02	-2.752E-02	-1.633E-01	 9.695E-02	 5.188E+00	 6.129E-01	 1.812E+03	 3.444E-02	 9.660E-02	 1.261E-02	 1.795E-02	 6.828E-02	-1.256E-01	-2.520E-01	-1.398E+00	 9.367E-01	-6.186E-02	-4.686E+00	 4.433E+00	 6.084E+00	 1.687E-02
  16.300	 1.529E+02	-9.225E-04	 3.316E-03	-5.107E-03	 2.634E-03	 6.929E-02	-4.007E-02	-1.145E-01	-5.355E-02	 5.165E+00	 6.216E-01	 1.812E+03	 3.513E-02	 9.790E-02	 1.279E-02	 3.693E-02	-1.461E-01	 1.177E-01	-1.722E-01	-1.012E+00	 6.971E-01	 2.270E-02	-2.907E+00	 5.798E+00	 6.117E+00	-3.193E-02
  16.350	 1.721E+02	-1.722E-03	-7.261E-04	-3.340E-03	 2.381E-03	 4.449E-02	-3.631E-02	-1.284E-01	-1.238E-01	 5.089E+00	 6.202E-01	 1.812E+03	 3.556E-02	 9.874E-02	 7.684E-03	-7.513E-03	 2.194E-01	-1.386E-02	-2.115E-01	-5.548E-01	 4.791E-01	 1.378E-02	-8.380E-01	 6.438E+00	 6.067E+00	-3.979E-02
  16.400	 1.914E+02	-6.064E-03	 2.457E-04	-8.086E-04	 1.357E-03	 7.911E-03	-2.124E-02	-2.513E-01	-7.858E-02	 5.120E+00	 5.811E-01	 1.812E+03	 3.608E-02	 9.898E-02	 4.081E-03	-7.650E-03	-4.595E-01	-1.987E+00	-1.231E-01	-6.281E-02	 1.279E-01	-2.007E-01	 1.397E+00	 6.450E+00	 6.127E+00	-8.407E-02
  16.450	 2.106E+02	-2.277E-03	 4.704E-04	-1.079E-04	 2.491E-04	-1.046E-03	-5.307E-03	-1.432E-01	-6.069E-02	 5.240E+00	 5.974E-01	 1.812E+03	 3.627E-02	 9.764E-02	 3.163E-03	-2.408E-02	-5.775E-01	-3.959E-01	-9.729E-02	 2.659E-01	 4.141E-02	-2.585E-02	 3.326E+00	 5.656E+00	 6.003E+00	-7.385E-02
  16.500	 2.299E+02	 6.994E-03	-4.085E-03	 1.217E-03	-1.524E-03	-1.907E-02	 1.962E-02	 5.920E-02	-1.490E-01	 5.275E+00	 6.215E-01	 1.812E+03	 3.569E-02	 9.561E-02	-1.393E-02	-3.399E-02	 4.119E-01	 1.372E+00	 1.061E-01	 6.493E-01	-2.264E-01	 3.336E-01	 5.000E+00	 4.163E+00	 5.935E+00	-7.950E-02
  16.550	 2.491E+02	 1.019E-02	-9.200E-03	 1.725E-03	-2.713E-03	-2.678E-02	 3.640E-02	 9.943E-02	-2.457E-01	 5.206E+00	 6.067E-01	 1.812E+03	 3.507E-02	 9.439E-02	-1.709E-02	-3.380E-02	-1.080E-01	-2.773E-01	 2.893E-01	 8.481E-01	-3.078E-01	 4.199E-01	 6.044E+00	 2.320E+00	 5.999E+00	-5.083E-02
  16.600	 2.683E+02	 5.025E-03	-9.282E-03	 2.425E-03	-4.887E-03	-3.689E-02	 6.723E-02	-1.109E-02	-2.366E-01	 5.247E+00	 6.421E-01	 1.812E+03	 3.429E-02	 9.319E-02	-1.417E-02	-6.402E-03	-5.066E-02	 7.394E-01	 1.925E-01	 9.461E-01	-3.826E-01	 2.001E-01	 6.450E+00	 1.320E-01	 5.860E+00	-4.936E-02
  16.650	 2.876E+02	-5.940E-04	-5.447E-03	 2.581E-03	-6.423E-03	-3.887E-02	 8.880E-02	-1.116E-01	-1.630E-01	 5.310E+00	 6.006E-01	 1.812E+03	 3.351E-02	 9.310E-02	-1.507E-02	-1.188E-02	 2.241E-01	-4.453E-01	 2.980E-02	 9.034E-01	-3.584E-01	-9.237E-03	 6.193E+00	-1.991E+00	 5.770E+00	 6.219E-04
  16.700	 3.068E+02	-1.008E-03	-2.956E-03	 1.626E-03	-7.652E-03	-2.528E-02	 1.059E-01	-1.134E-01	-1.213E-01	 5.331E+00	 6.083E-01	 1.812E+03	 3.322E-02	 9.327E-02	-3.362E-04	 2.358E-02	-1.912E-01	-4.511E-01	-7.245E-03	 6.933E-01	-2.066E-01	-1.091E-02	 5.184E+00	-3.993E+00	 5.725E+00	-2.523E-02
  16.750	 3.261E+02	 4.178E-04	-4.219E-03	 6.647E-04	-8.196E-03	-1.124E-02	 1.133E-01	-6.513E-02	-1.568E-01	 5.294E+00	 6.258E-01	 1.812E+03	 3.328E-02	 9.358E-02	 1.058E-02	 1.151E-02	 2.789E-01	 9.432E-01	-5.552E-02	 4.169E-01	-8.803E-02	 6.088E-02	 3.705E+00	-5.444E+00	 5.657E+00	 3.208E-02
  16.800	 3.453E+02	-3.035E-03	-6.219E-03	-1.130E-03	-7.686E-03	 1.410E-02	 1.057E-01	-1.278E-01	-2.109E-01	 5.279E+00	 6.240E-01	 1.812E+03	 3.350E-02	 9.411E-02	-8.055E-04	 6.225E-03	 3.329E-01	 7.606E-01	-1.887E-01	-2.435E-02	 2.097E-01	-5.601E-02	 1.637E+00	-6.284E+00	 5.855E+00	 1.802E-02
  16.850	 4.556E+00	-8.398E-03	-5.090E-03	-2.334E-03	-7.185E-03	 3.115E-02	 9.848E-02	-2.269E-01	-1.966E-01	 5.236E+00	 6.093E-01	 1.812E+03	 3.394E-02	 9.544E-02	 1.184E-02	 2.912E-02	-1.183E-01	-5.898E-01	-3.554E-01	-4.369E-01	 4.030E-01	-2.493E-01	-4.917E-01	-6.486E+00	 6.061E+00	 1.452E-02
  16.900	 2.380E+01	-9.489E-03	-1.901E-03	-4.357E-03	-5.847E-03	 5.971E-02	 7.969E-02	-2.430E-01	-1.341E-01	 5.223E+00	 6.058E-01	 1.812E+03	 3.453E-02	 9.653E-02	 1.295E-02	 2.395E-02	-1.936E-03	 4.693E-01	-4.292E-01	-9.113E-01	 7.097E-01	-2.657E-01	-2.621E+00	-5.881E+00	 6.050E+00	-7.074E-03
  16.950	 4.304E+01	-5.850E-03	-9.447E-04	-6.184E-03	-4.254E-03	 8.537E-02	 5.734E-02	-1.739E-01	-1.134E-01	 5.114E+00	 6.192E-01	 1.812E+03	 3.511E-02	 9.813E-02	 8.492E-03	 2.095E-02	-1.577E-01	-1.405E+00	-3.509E-01	-1.307E+00	 9.289E-01	-1.184E-01	-4.475E+00	-4.748E+00	 6.113E+00	-1.448E-02
  17.000	 6.228E+01	-2.458E-03	-3.421E-03	-7.408E-03	-1.931E-03	 1.026E-01	 2.547E-02	-1.064E-01	-1.308E-01	 5.181E+00	 5.881E-01	 1.812E+03	 3.562E-02	 9.843E-02	 1.470E-02	 1.816E-02	-6.036E-03	 6.750E-01	-3.043E-01	-1.584E+00	 1.063E+00	 5.556E-03	-5.807E+00	-2.942E+00	 5.953E+00	-7.777E-02
  17.050	 8.152E+01	-3.487E-03	-4.589E-03	-8.270E-03	-4.049E-04	 1.143E-01	 3.246E-03	-1.439E-01	-1.834E-01	 5.206E+00	 6.128E-01	 1.812E+03	 3.602E-02	 9.820E-02	 7.012E-03	-2.668E-02	 3.272E-01	 5.037E-01	-3.155E-01	-1.768E+00	 1.186E+00	-4.959E-02	-6.544E+00	-9.563E-01	 5.944E+00	-5.330E-02
  17.100	 1.008E+02	-6.081E-03	 2.176E-03	-7.774E-03	 5.532E-04	 1.070E-01	-1.093E-02	-2.072E-01	-7.967E-02	 5.222E+00	 6.225E-01	 1.812E+03	 3.612E-02	 9.701E-02	-1.328E-02	-4.206E-02	-4.683E-01	-6.750E-01	-3.575E-01	-1.726E+00	 1.115E+00	-1.557E-01	-6.384E+00	 1.234E+00	 6.086E+00	-8.028E-02
  17.150	 1.200E+02	-5.873E-03	 9.270E-03	-7.365E-03	 1.680E-03	 1.010E-01	-2.620E-02	-2.112E-01	 7.964E-02	 5.233E+00	 6.166E-01	 1.812E+03	 3.556E-02	 9.556E-02	-8.226E-03	-1.475E-02	-2.060E-01	-3.907E-01	-3.263E-01	-1.595E+00	 1.059E+00	-1.498E-01	-5.645E+00	 3.274E+00	 6.058E+00	-7.524E-02
  17.200	 1.393E+02	-2.657E-03	 8.401E-03	-6.215E-03	 1.960E-03	 8.489E-02	-2.953E-02	-1.472E-01	 8.622E-02	 5.228E+00	 5.957E-01	 1.812E+03	 3.489E-02	 9.422E-02	-1.457E-02	-2.712E-02	 5.022E-02	 5.683E-01	-2.322E-01	-1.290E+00	 8.665E-01	-3.463E-02	-4.188E+00	 4.879E+00	 5.926E+00	-4.637E-02
  17.250	 1.585E+02	-8.935E-04	 1.807E-03	-4.639E-03	 2.699E-03	 6.278E-02	-4.065E-02	-1.114E-01	-6.979E-02	 5.265E+00	 6.334E-01	 1.812E+03	 3.416E-02	 9.379E-02	-1.591E-02	 2.491E-03	-9.796E-02	-4.127E-01	-1.917E-01	-8.905E-01	 6.348E-01	 2.279E-02	-2.346E+00	 6.071E+00	 5.866E+00	-3.018E-02
  17.300	 1.777E+02	-2.503E-03	-1.394E-03	-2.623E-03	 2.123E-03	 3.519E-02	-3.283E-02	-1.138E-01	-1.426E-01	 5.469E+00	 6.620E-01	 1.812E+03	 3.345E-02	 9.324E-02	-5.844E-03	-2.248E-03	 5.161E-01	 1.623E+00	-2.739E-01	-4.261E-01	 3.698E-01	-5.054E-02	-2.060E-01	 6.464E+00	 5.663E+00	-1.329E-02
  17.350	 1.970E+02	-6.100E-03	 8.481E-05	-5.004E-04	 1.163E-03	 3.890E-03	-1.843E-02	-2.397E-01	-7.908E-02	 5.298E+00	 6.313E-01	 1.812E+03	 3.329E-02	 9.369E-02	-3.638E-03	-9.280E-03	 3.542E-01	-4.333E-01	-1.713E-01	 3.801E-02	 1.000E-01	-1.875E-01	 1.966E+00	 6.314E+00	 5.735E+00	 1.526E-02
  17.400	 2.162E+02	-2.973E-04	-1.009E-03	 2.065E-04	-2.371E-04	-6.073E-03	 1.712E-03	-1.284E-01	-8.214E-02	 5.216E+00	 6.267E-01	 1.812E+03	 3.351E-02	 9.382E-02	 2.971E-04	 2.975E-03	-5.865E-01	-8.979E-01	 4.425E-02	 3.708E-01	-2.179E-02	 4.015E-02	 3.824E+00	 5.276E+00	 5.868E+00	 1.577E-02
  17.450	 2.355E+02	 8.601E-03	-6.008E-03	 1.520E-03	-1.818E-03	-2.348E-02	 2.392E-02	 8.505E-02	-1.796E-01	 5.274E+00	 6.248E-01	 1.812E+03	 3.352E-02	 9.420E-02	 9.982E-03	 3.221E-02	 2.850E-01	 5.705E-01	 1.773E-01	 7.339E-01	-2.826E-01	 3.855E-01	 5.375E+00	 3.695E+00	 5.901E+00	 1.252E-02
  17.500	 2.547E+02	 9.403E-03	-9.681E-03	 1.826E-03	-3.256E-03	-2.773E-02	 4.399E-02	 1.024E-01	-2.563E-01	 5.258E+00	 6.400E-01	 1.812E+03	 3.400E-02	 9.541E-02	 9.759E-03	 1.685E-02	 1.819E-01	 2.788E-01	 2.020E-01	 8.797E-01	-3.100E-01	 3.951E-01	 6.209E+00	 1.723E+00	 5.999E+00	 2.218E-02
  17.550	 2.739E+02	 2.888E-03	-7.942E-03	 2.657E-03	-5.470E-03	-4.027E-02	 7.532E-02	-5.707E-02	-2.147E-01	 5.192E+00	 6.038E-01	 1.812E+03	 3.462E-02	 9.681E-02	 1.148E-02	 3.706E-02	-1.400E-01	-4.258E-02	 1.583E-01	 9.601E-01	-4.038E-01	 1.152E-01	 6.474E+00	-4.958E-01	 6.047E+00	-1.922E-02
  17.600	 2.932E+02	-1.188E-03	-3.725E-03	 2.358E-03	-6.807E-03	-3.607E-02	 9.427E-02	-1.360E-01	-1.273E-01	 5.204E+00	 6.148E-01	 1.812E+03	 3.507E-02	 9.779E-02	 1.076E-02	 3.548E-03	 2.754E-01	 2.688E-01	 6.644E-02	 8.511E-01	-3.194E-01	-3.461E-02	 5.941E+00	-2.599E+00	 6.009E+00	-2.956E-02
  17.650	 3.124E+02	 1.867E-04	-2.704E-03	 1.322E-03	-8.014E-03	-2.079E-02	 1.108E-01	-8.180E-02	-1.245E-01	 5.191E+00	 5.758E-01	 1.812E+03	 3.572E-02	 9.845E-02	 7.077E-03	-2.523E-03	-2.980E-01	-1.717E+00	 3.931E-03	 6.239E-01	-1.734E-01	 3.869E-02	 4.813E+00	-4.519E+00	 6.090E+00	-6.789E-02
  17.700	 3.317E+02	 4.902E-04	-4.816E-03	 1.457E-04	-8.061E-03	-3.790E-03	 1.112E-01	-5.792E-02	-1.739E-01	 5.161E+00	 6.425E-01	 1.812E+03	 3.615E-02	 9.769E-02	 6.685E-03	-1.362E-02	-6.557E-01	-5.633E-01	-7.302E-02	 2.943E-01	-9.736E-03	 6.899E-02	 3.127E+00	-5.760E+00	 6.026E+00	-6.769E-02
  17.750	 3.509E+02	-4.241E-03	-6.316E-03	-1.601E-03	-7.606E-03	 2.078E-02	 1.045E-01	-1.492E-01	-2.155E-01	 5.220E+00	 6.527E-01	 1.812E+03	 3.579E-02	 9.623E-02	-8.485E-03	-2.281E-02	 3.339E-01	 1.081E+00	-2.291E-01	-1.563E-01	 2.837E-01	-9.903E-02	 9.896E-01	-6.440E+00	 5.981E+00	-7.837E-02
  17.800	 1.015E+01	-9.357E-03	-4.289E-03	-2.806E-03	-6.869E-03	 3.767E-02	 9.406E-02	-2.499E-01	-1.796E-01	 5.213E+00	 6.362E-01	 1.812E+03	 3.539E-02	 9.538E-02	-1.251E-02	-2.639E-02	-1.162E-01	-3.180E-01	-3.705E-01	-5.718E-01	 4.755E-01	-2.827E-01	-1.130E+00	-6.371E+00	 6.049E+00	-5.387E-02
  17.850	 2.940E+01	-9.115E-03	-1.430E-03	-5.010E-03	-5.377E-03	 6.892E-02	 7.308E-02	-2.350E-01	-1.246E-01	 5.299E+00	 6.299E-01	 1.812E+03	 3.475E-02	 9.431E-02	-1.328E-02	-6.342E-03	-4.992E-02	 8.157E-01	-4.368E-01	-1.048E+00	 8.011E-01	-2.464E-01	-3.221E+00	-5.597E+00	 5.916E+00	-5.921E-02
  17.900	 4.864E+01	-5.080E-03	-1.529E-03	-6.496E-03	-3.706E-03	 8.984E-02	 4.959E-02	-1.555E-01	-1.269E-01	 5.234E+00	 6.056E-01	 1.812E+03	 3.399E-02	 9.408E-02	-1.563E-02	-2.006E-02	 1.857E-01	-5.027E-01	-3.591E-01	-1.389E+00	 9.607E-01	-8.611E-02	-4.907E+00	-4.272E+00	 5.814E+00	-1.378E-02
  17.950	 6.788E+01	-2.829E-03	-5.163E-03	-7.730E-03	-1.187E-03	 1.070E-01	 1.373E-02	-1.193E-01	-2.144E-01	 5.268E+00	 6.323E-01	 1.812E+03	 3.363E-02	 9.393E-02	-3.865E-03	 1.219E-02	-2.690E-01	-9.531E-01	-3.110E-01	-1.658E+00	 1.109E+00	-1.421E-02	-6.107E+00	-2.386E+00	 5.794E+00	-3.375E-02
  18.000	 8.712E+01	-4.399E-03	-3.140E-03	-8.170E-03	-2.734E-04	 1.129E-01	 1.687E-03	-1.606E-01	-1.441E-01	 5.307E+00	 6.092E-01	 1.812E+03	 3.352E-02	 9.365E-02	 6.892E-03	 5.909E-03	 1.542E-01	 9.227E-01	-3.567E-01	-1.768E+00	 1.171E+00	-8.362E-02	-6.565E+00	-3.664E-01	 5.677E+00	 1.983E-02
  18.050	 1.064E+02	-6.399E-03	 4.951E-03	-7.667E-03	 9.889E-04	 1.054E-01	-1.621E-02	-2.152E-01	 6.455E-03	 5.295E+00	 5.891E-01	 1.812E+03	 3.345E-02	 9.363E-02	-5.341E-03	-4.012E-03	 4.745E-01	 1.196E+00	-3.664E-01	-1.697E+00	 1.104E+00	-1.674E-01	-6.227E+00	 1.842E+00	 5.808E+00	 1.307E-02
  18.100	 1.256E+02	-4.982E-03	 9.472E-03	-7.126E-03	 1.737E-03	 9.766E-02	-2.723E-02	-1.943E-01	 7.503E-02	 5.249E+00	 6.395E-01	 1.812E+03	 3.372E-02	 9.469E-02	 7.362E-03	 2.058E-02	-1.718E-01	-8.463E-01	-2.999E-01	-1.527E+00	 1.018E+00	-1.171E-01	-5.301E+00	 3.762E+00	 6.025E+00	 1.820E-02
  18.150	 1.448E+02	-1.733E-03	 6.200E-03	-5.769E-03	 2.271E-03	 7.859E-02	-3.442E-02	-1.305E-01	 2.360E-02	 5.192E+00	 6.155E-01	 1.812E+03	 3.413E-02	 9.551E-02	 1.121E-02	 2.709E-02	 6.355E-02	 7.234E-01	-1.924E-01	-1.180E+00	 7.948E-01	-3.532E-03	-3.685E+00	 5.282E+00	 5.985E+00	-1.827E-03
  18.200	 1.641E+02	-9.866E-04	 4.721E-04	-4.157E-03	 2.651E-03	 5.598E-02	-3.973E-02	-1.141E-01	-8.603E-02	 5.187E+00	 6.338E-01	 1.812E+03	 3.463E-02	 9.715E-02	 7.395E-03	 1.839E-02	-5.074E-02	-1.220E+00	-1.876E-01	-7.645E-01	 5.716E-01	 1.714E-02	-1.764E+00	 6.277E+00	 6.044E+00	-1.546E-03
  18.250	 1.833E+02	-3.942E-03	-8.547E-04	-1.765E-03	 1.802E-03	 2.291E-02	-2.798E-02	-1.496E-01	-1.192E-01	 5.292E+00	 6.248E-01	 1.812E+03	 3.521E-02	 9.777E-02	 1.682E-02	 2.814E-02	-1.079E-01	 3.479E-01	-2.923E-01	-2.583E-01	 2.526E-01	-9.432E-02	 4.744E-01	 6.501E+00	 5.931E+00	-6.844E-02
  18.300	 2.026E+02	-4.803E-03	 7.445E-04	-3.527E-04	 8.553E-04	 2.628E-03	-1.412E-02	-1.833E-01	-6.658E-02	 5.307E+00	 6.124E-01	 1.812E+03	 3.574E-02	 9.788E-02	 1.157E-02	-1.614E-02	 3.328E-01	 5.990E-01	-2.288E-01	 1.318E-01	 8.837E-02	-1.167E-01	 2.546E+00	 6.101E+00	 5.910E+00	-4.187E-02
  18.350	 2.218E+02	 2.696E-03	-1.779E-03	 6.296E-04	-8.525E-04	-1.186E-02	 1.026E-02	-6.440E-02	-1.013E-01	 5.141E+00	 5.974E-01	 1.812E+03	 3.599E-02	 9.704E-02	-9.815E-03	-3.457E-02	-3.005E-01	-2.835E-01	 1.171E-01	 4.925E-01	-1.078E-01	 1.567E-01	 4.349E+00	 4.830E+00	 6.074E+00	-7.256E-02
  18.400	 2.411E+02	 9.761E-03	-7.203E-03	 1.680E-03	-2.167E-03	-2.628E-02	 2.891E-02	 8.573E-02	-1.996E-01	 5.136E+00	 5.722E-01	 1.812E+03	 3.566E-02	 9.611E-02	-4.890E-03	-1.021E-02	-2.834E-01	-6.692E-01	 2.973E-01	 7.981E-01	-3.103E-01	 4.108E-01	 5.715E+00	 3.149E+00	 6.108E+00	-7.272E-02
  18.450	 2.603E+02	 8.241E-03	-9.729E-03	 1.999E-03	-3.946E-03	-3.014E-02	 5.385E-02	 8.048E-02	-2.507E-01	 5.248E+00	 6.447E-01	 1.812E+03	 3.518E-02	 9.503E-02	-1.053E-02	-1.946E-02	 5.498E-03	 5.149E-01	 1.706E-01	 9.100E-01	-3.287E-01	 3.463E-01	 6.344E+00	 1.062E+00	 5.973E+00	-5.393E-02
  18.500	 2.795E+02	 1.376E-03	-7.156E-03	 2.722E-03	-5.914E-03	-4.089E-02	 8.153E-02	-7.520E-02	-2.013E-01	 5.272E+00	 5.916E-01	 1.812E+03	 3.457E-02	 9.473E-02	-1.501E-02	-1.343E-03	-1.347E-01	-6.173E-01	 8.133E-02	 9.512E-01	-3.999E-01	 6.277E-02	 6.418E+00	-1.122E+00	 5.916E+00	-3.806E-02
  18.550	 2.988E+02	-1.554E-03	-3.381E-03	 2.063E-03	-7.135E-03	-3.195E-02	 9.883E-02	-1.440E-01	-1.220E-01	 5.289E+00	 6.576E-01	 1.812E+03	 3.391E-02	 9.401E-02	-5.293E-03	-3.425E-03	 4.220E-01	 1.533E+00	 5.072E-02	 7.857E-01	-2.704E-01	-4.527E-02	 5.645E+00	-3.173E+00	 5.689E+00	-3.236E-02
  18.600	 3.180E+02	 3.739E-04	-3.456E-03	 1.103E-03	-8.192E-03	-1.760E-02	 1.132E-01	-7.352E-02	-1.419E-01	 5.304E+00	 5.989E-01	 1.812E+03	 3.365E-02	 9.404E-02	-5.941E-03	-1.985E-02	 4.153E-01	-1.398E-01	-1.810E-02	 5.505E-01	-1.479E-01	 4.771E-02	 4.398E+00	-4.936E+00	 5.751E+00	 6.123E-03
  18.650	 3.373E+02	-9.212E-04	-5.683E-03	-3.681E-04	-7.853E-03	 3.529E-03	 1.082E-01	-8.146E-02	-1.962E-01	 5.262E+00	 6.258E-01	 1.812E+03	 3.372E-02	 9.383E-02	-4.470E-03	-4.258E-03	-6.125E-01	-9.833E-01	-1.386E-01	 1.678E-01	 8.126E-02	 2.186E-02	 2.536E+00	-5.996E+00	 5.883E+00	 3.611E-03
  18.700	 3.565E+02	-6.317E-03	-6.073E-03	-1.873E-03	-7.481E-03	 2.473E-02	 1.027E-01	-1.841E-01	-2.132E-01	 5.294E+00	 6.187E-01	 1.812E+03	 3.351E-02	 9.383E-02	 5.786E-03	 2.437E-02	 2.802E-01	 6.272E-01	-3.105E-01	-2.672E-01	 3.313E-01	-1.722E-01	 3.960E-01	-6.512E+00	 5.881E+00	 7.424E-03
  18.750	 1.575E+01	-1.005E-02	-3.208E-03	-3.351E-03	-6.485E-03	 4.535E-02	 8.869E-02	-2.626E-01	-1.580E-01	 5.228E+00	 6.006E-01	 1.812E+03	 3.381E-02	 9.477E-02	 6.366E-03	 1.165E-02	 1.365E-01	 1.632E-01	-4.002E-01	-7.043E-01	 5.625E-01	-3.005E-01	-1.728E+00	-6.203E+00	 5.964E+00	 2.244E-02
  18.800	 3.499E+01	-7.932E-03	-9.293E-04	-5.561E-03	-4.937E-03	 7.660E-02	 6.694E-02	-2.146E-01	-1.132E-01	 5.222E+00	 6.111E-01	 1.812E+03	 3.425E-02	 9.601E-02	 9.596E-03	 3.922E-02	-5.587E-02	 5.926E-02	-3.997E-01	-1.164E+00	 8.667E-01	-1.994E-01	-3.763E+00	-5.295E+00	 5.994E+00	-9.946E-03
  18.850	 5.424E+01	-3.470E-03	-1.870E-03	-6.868E-03	-3.104E-03	 9.512E-02	 4.137E-02	-1.226E-01	-1.240E-01	 5.239E+00	 5.819E-01	 1.812E+03	 3.466E-02	 9.699E-02	 1.047E-02	 4.687E-03	 3.363E-01	 5.751E-01	-3.319E-01	-1.469E+00	 9.970E-01	-2.484E-02	-5.286E+00	-3.744E+00	 5.953E+00	-2.126E-02
  18.900	 7.348E+01	-2.650E-03	-5.977E-03	-8.070E-03	-6.820E-04	 1.115E-01	 6.138E-03	-1.247E-01	-2.492E-01	 5.166E+00	 6.502E-01	 1.812E+03	 3.535E-02	 9.792E-02	 8.680E-03	 3.085E-04	-1.995E-01	-1.662E+00	-2.841E-01	-1.723E+00	 1.155E+00	-1.439E-02	-6.358E+00	-1.806E+00	 6.051E+00	-5.008E-02
  18.950	 9.272E+01	-4.995E-03	-1.446E-03	-8.018E-03	-5.381E-06	 1.106E-01	-2.789E-03	-1.778E-01	-1.387E-01	 5.195E+00	 6.393E-01	 1.812E+03	 3.591E-02	 9.751E-02	 7.977E-03	-8.155E-03	-7.308E-01	-8.737E-01	-3.506E-01	-1.759E+00	 1.145E+00	-1.106E-01	-6.539E+00	 2.897E-01	 6.045E+00	-5.814E-02
  19.000	 1.120E+02	-6.429E-03	 7.636E-03	-7.574E-03	 1.356E-03	 1.041E-01	-2.100E-02	-2.183E-01	 7.283E-02	 5.221E+00	 5.814E-01	 1.812E+03	 3.572E-02	 9.644E-02	-2.494E-03	-8.682E-03	 3.325E-01	 1.043E+00	-3.542E-01	-1.664E+00	 1.093E+00	-1.694E-01	-6.030E+00	 2.470E+00	 5.999E+00	-7.158E-02
  19.050	 1.312E+02	-4.097E-03	 9.919E-03	-6.813E-03	 1.760E-03	 9.328E-02	-2.706E-02	-1.762E-01	 1.024E-01	 5.227E+00	 6.032E-01	 1.812E+03	 3.551E-02	 9.590E-02	-9.691E-03	-2.467E-02	-6.000E-02	-1.274E-01	-2.737E-01	-1.439E+00	 9.660E-01	-8.550E-02	-4.870E+00	 4.250E+00	 6.066E+00	-5.115E-02
  19.100	 1.504E+02	-1.165E-03	 4.260E-03	-5.291E-03	 2.517E-03	 7.188E-02	-3.833E-02	-1.190E-01	-3.176E-02	 5.224E+00	 6.123E-01	 1.812E+03	 3.505E-02	 9.515E-02	-1.040E-02	-1.098E-03	-1.523E-01	 4.418E-01	-1.801E-01	-1.062E+00	 7.235E-01	 1.519E-02	-3.135E+00	 5.656E+00	 5.974E+00	-6.426E-02
  19.150	 1.697E+02	-1.524E-03	-6.524E-04	-3.609E-03	 2.494E-03	 4.823E-02	-3.777E-02	-1.263E-01	-1.172E-01	 5.206E+00	 6.286E-01	 1.812E+03	 3.436E-02	 9.481E-02	-1.383E-02	-2.125E-02	 2.733E-01	-1.135E-01	-2.664E-01	-6.195E-01	 5.034E-01	 8.097E-04	-1.123E+00	 6.402E+00	 5.841E+00	-2.455E-02
  19.200	 1.889E+02	-5.695E-03	-4.890E-04	-1.034E-03	 1.502E-03	 1.144E-02	-2.339E-02	-2.301E-01	-9.751E-02	 5.232E+00	 6.182E-01	 1.812E+03	 3.404E-02	 9.465E-02	-6.038E-03	 4.027E-03	-3.443E-01	-1.268E+00	-1.712E-01	-1.172E-01	 1.553E-01	-1.799E-01	 1.112E+00	 6.475E+00	 5.844E+00	-4.537E-02
  19.250	 2.082E+02	-3.232E-03	 2.909E-04	-2.192E-04	 4.992E-04	 8.693E-04	-8.862E-03	-1.481E-01	-6.567E-02	 5.375E+00	 6.452E-01	 1.812E+03	 3.385E-02	 9.402E-02	 4.272E-03	-1.428E-03	-3.431E-02	 5.574E-01	-1.893E-01	 2.191E-01	 6.597E-02	-5.290E-02	 3.070E+00	 5.813E+00	 5.714E+00	 7.269E-03
  19.300	 2.274E+02	 5.591E-03	-3.714E-03	 1.054E-03	-1.300E-03	-1.703E-02	 1.647E-02	 2.233E-02	-1.416E-01	 5.310E+00	 6.506E-01	 1.812E+03	 3.358E-02	 9.354E-02	-7.847E-03	-8.111E-03	 5.238E-01	 1.322E+00	 9.119E-02	 6.016E-01	-1.927E-01	 2.776E-01	 4.792E+00	 4.383E+00	 5.804E+00	 5.588E-03
  19.350	 2.467E+02	 9.928E-03	-8.895E-03	 1.728E-03	-2.484E-03	-2.703E-02	 3.321E-02	 8.628E-02	-2.381E-01	 5.201E+00	 6.057E-01	 1.812E+03	 3.365E-02	 9.423E-02	 3.110E-03	 1.297E-02	-7.279E-02	-5.317E-01	 3.089E-01	 8.328E-01	-3.111E-01	 4.093E-01	 5.945E+00	 2.598E+00	 5.993E+00	 1.771E-02
  19.400	 2.659E+02	 5.881E-03	-9.371E-03	 2.314E-03	-4.602E-03	-3.507E-02	 6.320E-02	 1.548E-02	-2.390E-01	 5.243E+00	 6.451E-01	 1.812E+03	 3.391E-02	 9.486E-02	 7.655E-03	 2.318E-02	 5.988E-02	 7.605E-01	 1.854E-01	 9.360E-01	-3.688E-01	 2.389E-01	 6.425E+00	 4.275E-01	 5.945E+00	-1.550E-03
  19.450	 2.851E+02	-6.391E-05	-5.572E-03	 2.656E-03	-6.297E-03	-3.985E-02	 8.698E-02	-9.798E-02	-1.673E-01	 5.260E+00	 5.717E-01	 1.812E+03	 3.429E-02	 9.641E-02	 6.261E-03	 1.713E-02	-2.021E-02	-1.245E+00	 4.338E-02	 9.227E-01	-3.749E-01	 1.185E-02	 6.288E+00	-1.723E+00	 5.998E+00	 7.063E-03
  19.500	 3.044E+02	-1.010E-03	-2.551E-03	 1.748E-03	-7.532E-03	-2.717E-02	 1.043E-01	-1.201E-01	-1.104E-01	 5.238E+00	 6.199E-01	 1.812E+03	 3.485E-02	 9.712E-02	 1.684E-02	 3.253E-02	-1.214E-01	 1.464E-01	 2.730E-02	 7.215E-01	-2.256E-01	-1.620E-02	 5.331E+00	-3.763E+00	 5.905E+00	-5.854E-02
  19.550	 3.236E+02	 8.456E-04	-3.713E-03	 7.918E-04	-8.258E-03	-1.316E-02	 1.141E-01	-6.209E-02	-1.476E-01	 5.200E+00	 6.288E-01	 1.812E+03	 3.544E-02	 9.739E-02	 1.437E-02	-8.485E-03	 3.089E-01	 8.282E-01	-1.315E-02	 4.584E-01	-1.106E-01	 7.100E-02	 3.918E+00	-5.315E+00	 5.880E+00	-3.129E-02
  19.600	 3.429E+02	-1.893E-03	-6.080E-03	-9.633E-04	-7.739E-03	 1.180E-02	 1.065E-01	-1.043E-01	-2.079E-01	 5.186E+00	 6.440E-01	 1.812E+03	 3.580E-02	 9.699E-02	-6.599E-03	-2.528E-02	-1.923E-01	-2.576E-01	-1.523E-01	 2.817E-02	 1.771E-01	-1.443E-02	 1.891E+00	-6.220E+00	 6.070E+00	-6.334E-02
  19.650	 2.109E+00	-7.510E-03	-5.477E-03	-2.218E-03	-7.292E-03	 2.960E-02	 9.998E-02	-2.065E-01	-2.038E-01	 5.208E+00	 6.419E-01	 1.812E+03	 3.567E-02	 9.647E-02	-1.495E-03	-3.474E-03	-2.852E-01	-6.474E-01	-3.404E-01	-3.879E-01	 3.823E-01	-2.162E-01	-2.422E-01	-6.516E+00	 6.128E+00	-6.674E-02
  19.700	 2.135E+01	-9.801E-03	-2.354E-03	-4.070E-03	-6.036E-03	 5.561E-02	 8.236E-02	-2.518E-01	-1.420E-01	 5.224E+00	 6.294E-01	 1.812E+03	 3.536E-02	 9.568E-02	-7.913E-03	-1.613E-02	-5.338E-02	 4.495E-01	-4.267E-01	-8.514E-01	 6.694E-01	-2.821E-01	-2.367E+00	-5.983E+00	 6.010E+00	-5.664E-02
  19.750	 4.059E+01	-6.844E-03	-9.772E-04	-5.997E-03	-4.463E-03	 8.269E-02	 6.029E-02	-1.948E-01	-1.138E-01	 5.184E+00	 6.300E-01	 1.812E+03	 3.486E-02	 9.555E-02	-1.307E-02	-9.013E-04	-1.522E-01	-9.025E-01	-3.743E-01	-1.266E+00	 9.129E-01	-1.573E-01	-4.272E+00	-4.923E+00	 5.967E+00	-3.870E-02
  19.800	 5.983E+01	-3.057E-03	-2.914E-03	-7.218E-03	-2.302E-03	 1.000E-01	 3.075E-02	-1.158E-01	-1.186E-01	 5.283E+00	 5.753E-01	 1.812E+03	 3.427E-02	 9.477E-02	-4.603E-03	-2.459E-03	 3.204E-01	 1.509E+00	-3.321E-01	-1.546E+00	 1.043E+00	-9.800E-03	-5.644E+00	-3.191E+00	 5.722E+00	-4.842E-02
  19.850	 7.908E+01	-3.473E-03	-5.584E-03	-8.218E-03	-4.472E-04	 1.136E-01	 3.495E-03	-1.427E-01	-2.161E-01	 5.286E+00	 6.198E-01	 1.812E+03	 3.397E-02	 9.454E-02	-5.615E-03	-2.394E-02	 4.696E-01	 2.032E-01	-3.199E-01	-1.757E+00	 1.181E+00	-4.681E-02	-6.499E+00	-1.229E+00	 5.747E+00	-9.733E-04
  19.900	 9.832E+01	-5.902E-03	 7.714E-04	-7.822E-03	 3.570E-04	 1.077E-01	-8.235E-03	-2.016E-01	-1.096E-01	 5.269E+00	 6.369E-01	 1.812E+03	 3.391E-02	 9.396E-02	-9.877E-03	-1.844E-02	-5.117E-01	-7.981E-01	-3.665E-01	-1.735E+00	 1.121E+00	-1.449E-01	-6.437E+00	 9.259E-01	 5.893E+00	-3.961E-03
  19.950	 1.176E+02	-6.096E-03	 8.965E-03	-7.439E-03	 1.604E-03	 1.021E-01	-2.488E-02	-2.140E-01	 8.326E-02	 5.267E+00	 6.215E-01	 1.812E+03	 3.359E-02	 9.373E-02	 3.314E-03	 2.027E-02	 1.133E-01	 1.103E-01	-3.408E-01	-1.620E+00	 1.072E+00	-1.569E-01	-5.784E+00	 3.018E+00	 5.909E+00	 2.549E-03
  20.000	 1.368E+02	-3.052E-03	 8.932E-03	-6.412E-03	 1.881E-03	 8.766E-02	-2.842E-02	-1.548E-01	 9.623E-02	 5.233E+00	 6.103E-01	 1.812E+03	 3.369E-02	 9.421E-02	 3.774E-03	 7.675E-03	 2.404E-01	 5.920E-01	-2.465E-01	-1.339E+00	 8.984E-01	-4.785E-02	-4.415E+00	 4.679E+00	 5.917E+00	 2.059E-02
