
These predictions were generated by FAST (v7.02.00d-bjj, 20-Feb-2013) on 24-Jan-2014 at 12:38:19.
The aerodynamic calculations were made by AeroDyn (v13.00.02a-bjj, 20-Feb-2013).

 FAST certification Test #01: AWT-27CR2 with many DOFs with fixed yaw error and steady wind.

Time	LSSGagPxa	TeetDefl	TipDxb2	TipDyb2	TipALxb2	TipALyb2	Spn2ALxb1	Spn2ALyb1	YawBrRDxt	YawBrRDyt	YawBrRVxp	YawBrRVyp	YawBrRAxp	YawBrRAyp	RootMyc1	RootMxc1	RootFxc2	RootFyc2	Spn3MLxb1	Spn3MLyb1	RotTorq	YawBrMzn	TwrBsMzt
(s)	(deg)	(deg)	(m)	(m)	(m/s^2)	(m/s^2)	(m/s^2)	(m/s^2)	(deg)	(deg)	(deg/s)	(deg/s)	(deg/s^2)	(deg/s^2)	(kN·m)	(kN·m)	(kN)	(kN)	(kN·m)	(kN·m)	(kN·m)	(kN·m)	(kN·m)
  10.000	 1.831E+01	 9.529E-01	 1.622E-01	-2.519E-02	 7.219E+01	-6.471E-01	 2.752E+01	 2.377E+00	 3.381E-02	 1.001E-01	-1.804E-03	-3.182E-02	-2.163E-01	 3.842E-01	 3.652E+01	 2.081E+01	 4.912E+00	-1.196E+00	 1.658E+00	 3.728E+00	 3.560E+01	-1.871E+00	-1.873E+00
  10.020	 2.482E+01	 8.769E-01	 1.591E-01	-2.497E-02	 7.224E+01	 1.273E+00	 2.817E+01	 2.168E+00	 3.373E-02	 9.956E-02	-5.970E-03	-2.778E-02	-1.905E-01	-2.333E-02	 3.623E+01	 2.238E+01	 4.948E+00	-9.571E-01	 1.776E+00	 3.905E+00	 3.675E+01	-1.898E+00	-1.900E+00
  10.040	 3.133E+01	 7.890E-01	 1.592E-01	-2.418E-02	 6.886E+01	 1.748E+00	 2.955E+01	 2.307E+00	 3.357E-02	 9.897E-02	-9.215E-03	-3.271E-02	-1.326E-01	-4.249E-01	 3.533E+01	 2.463E+01	 4.803E+00	-5.689E-01	 1.993E+00	 4.232E+00	 3.721E+01	-2.808E+00	-2.809E+00
  10.060	 3.785E+01	 6.903E-01	 1.613E-01	-2.287E-02	 6.495E+01	 8.746E-01	 3.037E+01	 2.562E+00	 3.337E-02	 9.822E-02	-1.134E-02	-4.175E-02	-8.561E-02	-3.894E-01	 3.484E+01	 2.714E+01	 4.694E+00	-6.398E-02	 2.246E+00	 4.469E+00	 3.681E+01	-4.236E+00	-4.236E+00
  10.080	 4.436E+01	 5.834E-01	 1.642E-01	-2.158E-02	 6.366E+01	-4.569E-01	 3.017E+01	 2.705E+00	 3.312E-02	 9.733E-02	-1.298E-02	-4.516E-02	-8.861E-02	 9.849E-02	 3.521E+01	 2.945E+01	 4.723E+00	 4.393E-01	 2.478E+00	 4.518E+00	 3.611E+01	-5.515E+00	-5.514E+00
  10.100	 5.088E+01	 4.697E-01	 1.670E-01	-2.087E-02	 6.443E+01	-9.563E-01	 2.935E+01	 2.628E+00	 3.284E-02	 9.649E-02	-1.521E-02	-3.754E-02	-1.384E-01	 6.271E-01	 3.617E+01	 3.109E+01	 4.869E+00	 8.099E-01	 2.621E+00	 4.437E+00	 3.580E+01	-6.180E+00	-6.178E+00
  10.120	 5.739E+01	 3.499E-01	 1.698E-01	-2.094E-02	 6.522E+01	-1.734E-01	 2.872E+01	 2.385E+00	 3.251E-02	 9.588E-02	-1.846E-02	-2.275E-02	-1.788E-01	 7.676E-01	 3.708E+01	 3.193E+01	 5.011E+00	 1.004E+00	 2.652E+00	 4.361E+00	 3.611E+01	-6.231E+00	-6.229E+00
  10.140	 6.391E+01	 2.249E-01	 1.727E-01	-2.146E-02	 6.490E+01	 1.237E+00	 2.874E+01	 2.124E+00	 3.210E-02	 9.556E-02	-2.188E-02	-9.977E-03	-1.488E-01	 4.515E-01	 3.752E+01	 3.226E+01	 5.058E+00	 1.084E+00	 2.611E+00	 4.379E+00	 3.672E+01	-6.014E+00	-6.012E+00
  10.160	 7.042E+01	 9.622E-02	 1.754E-01	-2.191E-02	 6.375E+01	 2.256E+00	 2.923E+01	 1.973E+00	 3.164E-02	 9.542E-02	-2.383E-02	-5.666E-03	-3.435E-02	-8.375E-03	 3.760E+01	 3.250E+01	 5.026E+00	 1.152E+00	 2.568E+00	 4.468E+00	 3.715E+01	-5.878E+00	-5.875E+00
  10.180	 7.694E+01	-3.493E-02	 1.772E-01	-2.193E-02	 6.280E+01	 2.284E+00	 2.967E+01	 1.981E+00	 3.117E-02	 9.529E-02	-2.302E-02	-8.595E-03	 1.152E-01	-2.214E-01	 3.767E+01	 3.299E+01	 4.991E+00	 1.269E+00	 2.578E+00	 4.543E+00	 3.719E+01	-5.901E+00	-5.897E+00
  10.200	 8.345E+01	-1.666E-01	 1.778E-01	-2.153E-02	 6.281E+01	 1.456E+00	 2.978E+01	 2.112E+00	 3.074E-02	 9.508E-02	-1.954E-02	-1.186E-02	 2.193E-01	-4.581E-02	 3.795E+01	 3.375E+01	 4.992E+00	 1.422E+00	 2.653E+00	 4.553E+00	 3.700E+01	-5.890E+00	-5.887E+00
  10.220	 8.997E+01	-2.966E-01	 1.774E-01	-2.100E-02	 6.359E+01	 4.381E-01	 2.967E+01	 2.284E+00	 3.039E-02	 9.486E-02	-1.488E-02	-9.081E-03	 2.306E-01	 3.308E-01	 3.838E+01	 3.451E+01	 5.013E+00	 1.544E+00	 2.752E+00	 4.514E+00	 3.689E+01	-5.625E+00	-5.622E+00
  10.240	 9.648E+01	-4.223E-01	 1.764E-01	-2.070E-02	 6.441E+01	-1.239E-01	 2.961E+01	 2.419E+00	 3.014E-02	 9.476E-02	-1.077E-02	 5.760E-04	 1.748E-01	 5.918E-01	 3.874E+01	 3.485E+01	 5.020E+00	 1.570E+00	 2.805E+00	 4.471E+00	 3.704E+01	-5.051E+00	-5.048E+00
  10.260	 1.030E+02	-5.417E-01	 1.753E-01	-2.079E-02	 6.477E+01	-4.223E-02	 2.976E+01	 2.483E+00	 2.996E-02	 9.489E-02	-7.860E-03	 1.250E-02	 1.235E-01	 5.491E-01	 3.891E+01	 3.453E+01	 4.980E+00	 1.481E+00	 2.768E+00	 4.452E+00	 3.734E+01	-4.284E+00	-4.281E+00
  10.280	 1.095E+02	-6.526E-01	 1.743E-01	-2.119E-02	 6.476E+01	 3.692E-01	 3.001E+01	 2.492E+00	 2.982E-02	 9.524E-02	-5.392E-03	 2.098E-02	 1.359E-01	 2.777E-01	 3.895E+01	 3.363E+01	 4.911E+00	 1.306E+00	 2.652E+00	 4.442E+00	 3.759E+01	-3.483E+00	-3.481E+00
  10.300	 1.160E+02	-7.536E-01	 1.735E-01	-2.171E-02	 6.465E+01	 6.414E-01	 3.015E+01	 2.503E+00	 2.975E-02	 9.569E-02	-1.996E-03	 2.360E-02	 2.102E-01	 3.395E-03	 3.901E+01	 3.246E+01	 4.840E+00	 1.095E+00	 2.511E+00	 4.410E+00	 3.766E+01	-2.722E+00	-2.721E+00
  10.320	 1.225E+02	-8.434E-01	 1.730E-01	-2.217E-02	 6.462E+01	 4.985E-01	 3.007E+01	 2.566E+00	 2.975E-02	 9.616E-02	 3.050E-03	 2.236E-02	 2.894E-01	-9.052E-02	 3.917E+01	 3.129E+01	 4.783E+00	 8.800E-01	 2.394E+00	 4.345E+00	 3.759E+01	-1.967E+00	-1.967E+00
  10.340	 1.291E+02	-9.214E-01	 1.726E-01	-2.257E-02	 6.461E+01	 8.251E-03	 2.985E+01	 2.689E+00	 2.988E-02	 9.659E-02	 9.227E-03	 2.134E-02	 3.166E-01	 1.384E-02	 3.942E+01	 3.021E+01	 4.742E+00	 6.488E-01	 2.315E+00	 4.265E+00	 3.751E+01	-1.202E+00	-1.203E+00
  10.360	 1.356E+02	-9.870E-01	 1.722E-01	-2.299E-02	 6.450E+01	-5.296E-01	 2.967E+01	 2.840E+00	 3.012E-02	 9.703E-02	 1.523E-02	 2.336E-02	 2.729E-01	 1.852E-01	 3.966E+01	 2.905E+01	 4.701E+00	 3.835E-01	 2.245E+00	 4.204E+00	 3.750E+01	-4.854E-01	-4.866E-01
  10.380	 1.421E+02	-1.039E+00	 1.718E-01	-2.355E-02	 6.437E+01	-8.855E-01	 2.963E+01	 2.977E+00	 3.048E-02	 9.754E-02	 1.987E-02	 2.818E-02	 1.892E-01	 2.765E-01	 3.987E+01	 2.764E+01	 4.654E+00	 6.281E-02	 2.147E+00	 4.185E+00	 3.755E+01	 7.915E-02	 7.721E-02
  10.400	 1.486E+02	-1.078E+00	 1.713E-01	-2.429E-02	 6.437E+01	-1.005E+00	 2.963E+01	 3.067E+00	 3.091E-02	 9.816E-02	 2.283E-02	 3.335E-02	 1.109E-01	 2.112E-01	 4.004E+01	 2.584E+01	 4.592E+00	-3.155E-01	 2.002E+00	 4.201E+00	 3.759E+01	 3.848E-01	 3.823E-01
  10.420	 1.551E+02	-1.103E+00	 1.707E-01	-2.517E-02	 6.437E+01	-9.564E-01	 2.970E+01	 3.124E+00	 3.138E-02	 9.886E-02	 2.460E-02	 3.616E-02	 7.165E-02	 6.899E-02	 4.026E+01	 2.374E+01	 4.557E+00	-7.338E-01	 1.815E+00	 4.232E+00	 3.755E+01	 4.275E-01	 4.246E-01
  10.440	 1.617E+02	-1.113E+00	 1.700E-01	-2.610E-02	 6.465E+01	-9.863E-01	 2.931E+01	 3.161E+00	 3.189E-02	 9.958E-02	 2.573E-02	 3.544E-02	 4.699E-02	-1.234E-01	 4.032E+01	 2.145E+01	 4.463E+00	-1.176E+00	 1.627E+00	 4.253E+00	 3.737E+01	 2.104E-01	 2.071E-01
  10.460	 1.682E+02	-1.110E+00	 1.690E-01	-2.700E-02	 6.474E+01	-1.008E+00	 2.668E+01	 3.205E+00	 3.241E-02	 1.003E-01	 2.652E-02	 3.137E-02	 3.376E-02	-2.751E-01	 3.990E+01	 1.892E+01	 4.286E+00	-1.638E+00	 1.524E+00	 4.311E+00	 3.697E+01	-3.817E-01	-3.853E-01
  10.480	 1.747E+02	-1.096E+00	 1.675E-01	-2.779E-02	 6.446E+01	-1.009E+00	 2.246E+01	 3.583E+00	 3.295E-02	 1.008E-01	 2.707E-02	 2.706E-02	-6.237E-03	-1.628E-01	 3.911E+01	 1.662E+01	 4.134E+00	-2.075E+00	 1.528E+00	 4.697E+00	 3.671E+01	-8.204E-01	-8.240E-01
  10.500	 1.812E+02	-1.075E+00	 1.645E-01	-2.843E-02	 6.378E+01	-9.741E-01	 3.512E+01	 3.555E+00	 3.348E-02	 1.013E-01	 2.574E-02	 2.155E-02	-8.949E-02	-2.995E-01	 3.696E+01	 1.302E+01	 3.697E+00	-2.617E+00	 9.287E-01	 4.922E+00	 3.573E+01	-2.039E+00	-2.042E+00
  10.520	 1.877E+02	-1.045E+00	 1.601E-01	-2.902E-02	 6.340E+01	-9.033E-01	 3.142E+01	 3.109E+00	 3.397E-02	 1.017E-01	 2.397E-02	 2.088E-02	-1.201E-01	 1.672E-01	 3.835E+01	 9.941E+00	 4.079E+00	-3.044E+00	 4.791E-01	 4.377E+00	 3.458E+01	-2.720E+00	-2.723E+00
  10.540	 1.942E+02	-9.910E-01	 1.582E-01	-2.942E-02	 6.903E+01	-2.705E+00	 2.954E+01	 3.225E+00	 3.442E-02	 1.022E-01	 2.039E-02	 2.653E-02	-2.290E-01	 3.511E-01	 3.959E+01	 9.456E+00	 4.189E+00	-3.312E+00	 5.641E-01	 3.863E+00	 3.481E+01	-2.237E+00	-2.240E+00
  10.560	 2.008E+02	-9.213E-01	 1.591E-01	-2.997E-02	 7.007E+01	-3.724E+00	 2.836E+01	 3.652E+00	 3.478E-02	 1.028E-01	 1.534E-02	 3.192E-02	-2.616E-01	 1.162E-01	 4.015E+01	 9.452E+00	 4.222E+00	-3.614E+00	 7.306E-01	 3.563E+00	 3.596E+01	-1.815E+00	-1.817E+00
  10.580	 2.073E+02	-8.402E-01	 1.625E-01	-3.095E-02	 6.623E+01	-3.520E+00	 2.860E+01	 3.978E+00	 3.504E-02	 1.034E-01	 1.035E-02	 2.925E-02	-2.308E-01	-3.928E-01	 3.981E+01	 8.418E+00	 4.073E+00	-4.015E+00	 7.202E-01	 3.572E+00	 3.694E+01	-2.207E+00	-2.208E+00
  10.600	 2.138E+02	-7.475E-01	 1.671E-01	-3.233E-02	 6.257E+01	-2.920E+00	 2.956E+01	 4.012E+00	 3.520E-02	 1.039E-01	 6.196E-03	 1.757E-02	-1.848E-01	-7.023E-01	 3.916E+01	 6.108E+00	 3.822E+00	-4.474E+00	 4.937E-01	 3.808E+00	 3.704E+01	-3.390E+00	-3.390E+00
  10.620	 2.203E+02	-6.452E-01	 1.712E-01	-3.388E-02	 6.134E+01	-2.294E+00	 3.009E+01	 3.795E+00	 3.529E-02	 1.041E-01	 2.790E-03	 4.665E-03	-1.636E-01	-5.030E-01	 3.911E+01	 3.073E+00	 3.716E+00	-4.939E+00	 1.328E-01	 4.041E+00	 3.645E+01	-4.842E+00	-4.842E+00
  10.640	 2.268E+02	-5.359E-01	 1.737E-01	-3.530E-02	 6.250E+01	-1.954E+00	 2.977E+01	 3.556E+00	 3.531E-02	 1.041E-01	-7.245E-04	-2.693E-04	-1.968E-01	 2.742E-02	 3.992E+01	 4.239E-01	 3.825E+00	-5.340E+00	-1.792E-01	 4.151E+00	 3.585E+01	-5.921E+00	-5.919E+00
  10.660	 2.333E+02	-4.202E-01	 1.752E-01	-3.632E-02	 6.458E+01	-2.170E+00	 2.908E+01	 3.524E+00	 3.525E-02	 1.042E-01	-5.284E-03	 4.765E-03	-2.590E-01	 4.147E-01	 4.104E+01	-9.653E-01	 4.018E+00	-5.629E+00	-2.931E-01	 4.189E+00	 3.579E+01	-6.328E+00	-6.325E+00
  10.680	 2.398E+02	-2.990E-01	 1.765E-01	-3.688E-02	 6.561E+01	-2.834E+00	 2.870E+01	 3.750E+00	 3.509E-02	 1.044E-01	-1.084E-02	 1.315E-02	-2.853E-01	 3.420E-01	 4.184E+01	-1.145E+00	 4.154E+00	-5.812E+00	-2.222E-01	 4.253E+00	 3.629E+01	-6.224E+00	-6.221E+00
  10.700	 2.463E+02	-1.735E-01	 1.782E-01	-3.714E-02	 6.500E+01	-3.586E+00	 2.883E+01	 4.075E+00	 3.482E-02	 1.047E-01	-1.612E-02	 1.596E-02	-2.275E-01	-9.266E-02	 4.212E+01	-8.808E-01	 4.191E+00	-5.937E+00	-1.002E-01	 4.374E+00	 3.689E+01	-5.997E+00	-5.993E+00
  10.720	 2.529E+02	-4.484E-02	 1.801E-01	-3.735E-02	 6.385E+01	-4.062E+00	 2.919E+01	 4.278E+00	 3.446E-02	 1.049E-01	-1.943E-02	 9.611E-03	-9.493E-02	-5.041E-01	 4.211E+01	-9.593E-01	 4.174E+00	-6.053E+00	-5.927E-02	 4.510E+00	 3.718E+01	-5.913E+00	-5.910E+00
  10.740	 2.594E+02	 8.552E-02	 1.818E-01	-3.774E-02	 6.347E+01	-4.033E+00	 2.934E+01	 4.244E+00	 3.406E-02	 1.050E-01	-1.986E-02	-1.809E-03	 4.567E-02	-5.698E-01	 4.213E+01	-1.654E+00	 4.175E+00	-6.185E+00	-1.425E-01	 4.592E+00	 3.711E+01	-5.939E+00	-5.935E+00
  10.760	 2.659E+02	 2.156E-01	 1.830E-01	-3.830E-02	 6.403E+01	-3.536E+00	 2.916E+01	 4.031E+00	 3.368E-02	 1.049E-01	-1.807E-02	-1.075E-02	 1.178E-01	-2.832E-01	 4.227E+01	-2.638E+00	 4.224E+00	-6.316E+00	-2.926E-01	 4.591E+00	 3.693E+01	-5.838E+00	-5.834E+00
  10.780	 2.724E+02	 3.430E-01	 1.837E-01	-3.881E-02	 6.487E+01	-2.901E+00	 2.886E+01	 3.804E+00	 3.334E-02	 1.046E-01	-1.577E-02	-1.255E-02	 9.991E-02	 8.942E-02	 4.240E+01	-3.299E+00	 4.294E+00	-6.405E+00	-4.048E-01	 4.539E+00	 3.693E+01	-5.440E+00	-5.436E+00
  10.800	 2.789E+02	 4.656E-01	 1.839E-01	-3.903E-02	 6.530E+01	-2.531E+00	 2.869E+01	 3.696E+00	 3.304E-02	 1.044E-01	-1.436E-02	-8.622E-03	 4.045E-02	 2.524E-01	 4.231E+01	-3.203E+00	 4.340E+00	-6.408E+00	-4.067E-01	 4.483E+00	 3.717E+01	-4.769E+00	-4.766E+00
  10.820	 2.854E+02	 5.811E-01	 1.838E-01	-3.882E-02	 6.515E+01	-2.588E+00	 2.871E+01	 3.720E+00	 3.276E-02	 1.043E-01	-1.392E-02	-4.477E-03	 1.381E-02	 1.200E-01	 4.198E+01	-2.374E+00	 4.358E+00	-6.313E+00	-3.051E-01	 4.447E+00	 3.749E+01	-3.972E+00	-3.969E+00
  10.840	 2.920E+02	 6.878E-01	 1.833E-01	-3.826E-02	 6.490E+01	-2.911E+00	 2.883E+01	 3.784E+00	 3.249E-02	 1.042E-01	-1.330E-02	-4.801E-03	 5.994E-02	-1.565E-01	 4.155E+01	-1.167E+00	 4.371E+00	-6.141E+00	-1.606E-01	 4.428E+00	 3.769E+01	-3.187E+00	-3.185E+00
  10.860	 2.985E+02	 7.843E-01	 1.822E-01	-3.756E-02	 6.507E+01	-3.145E+00	 2.891E+01	 3.780E+00	 3.224E-02	 1.041E-01	-1.120E-02	-1.014E-02	 1.528E-01	-3.473E-01	 4.118E+01	 3.558E-02	 4.405E+00	-5.928E+00	-3.259E-02	 4.412E+00	 3.770E+01	-2.441E+00	-2.439E+00
  10.880	 3.050E+02	 8.697E-01	 1.808E-01	-3.689E-02	 6.568E+01	-3.020E+00	 2.893E+01	 3.674E+00	 3.205E-02	 1.038E-01	-7.318E-03	-1.725E-02	 2.273E-01	-3.286E-01	 4.089E+01	 1.091E+00	 4.462E+00	-5.700E+00	 5.461E-02	 4.396E+00	 3.761E+01	-1.686E+00	-1.686E+00
  10.900	 3.115E+02	 9.433E-01	 1.794E-01	-3.630E-02	 6.630E+01	-2.565E+00	 2.899E+01	 3.511E+00	 3.195E-02	 1.034E-01	-2.522E-03	-2.215E-02	 2.396E-01	-1.461E-01	 4.065E+01	 2.145E+00	 4.528E+00	-5.452E+00	 1.205E-01	 4.384E+00	 3.757E+01	-9.411E-01	-9.417E-01
  10.920	 3.180E+02	 1.004E+00	 1.784E-01	-3.571E-02	 6.655E+01	-2.023E+00	 2.906E+01	 3.365E+00	 3.195E-02	 1.029E-01	 1.833E-03	-2.306E-02	 1.881E-01	 4.440E-02	 4.034E+01	 3.416E+00	 4.573E+00	-5.167E+00	 2.103E-01	 4.376E+00	 3.760E+01	-2.800E-01	-2.815E-01
  10.940	 3.245E+02	 1.052E+00	 1.779E-01	-3.500E-02	 6.627E+01	-1.614E+00	 2.913E+01	 3.275E+00	 3.202E-02	 1.025E-01	 4.862E-03	-2.113E-02	 1.154E-01	 1.251E-01	 3.997E+01	 5.042E+00	 4.605E+00	-4.829E+00	 3.476E-01	 4.366E+00	 3.767E+01	 1.944E-01	 1.923E-01
  10.960	 3.311E+02	 1.087E+00	 1.779E-01	-3.414E-02	 6.574E+01	-1.440E+00	 2.918E+01	 3.246E+00	 3.213E-02	 1.021E-01	 6.552E-03	-1.927E-02	 6.199E-02	 5.049E-02	 3.953E+01	 7.013E+00	 4.584E+00	-4.422E+00	 5.318E-01	 4.348E+00	 3.768E+01	 3.798E-01	 3.771E-01
  10.980	 3.376E+02	 1.107E+00	 1.781E-01	-3.318E-02	 6.528E+01	-1.399E+00	 2.919E+01	 3.243E+00	 3.228E-02	 1.017E-01	 7.574E-03	-1.942E-02	 4.142E-02	-8.382E-02	 3.909E+01	 9.153E+00	 4.550E+00	-3.970E+00	 7.313E-01	 4.319E+00	 3.760E+01	 3.310E-01	 3.279E-01
  11.000	 3.441E+02	 1.113E+00	 1.785E-01	-3.220E-02	 6.550E+01	-1.237E+00	 2.929E+01	 3.241E+00	 3.244E-02	 1.013E-01	 8.348E-03	-2.237E-02	 3.825E-02	-2.056E-01	 3.851E+01	 1.135E+01	 4.457E+00	-3.462E+00	 9.355E-01	 4.293E+00	 3.736E+01	 9.102E-03	 5.659E-03
  11.020	 3.506E+02	 1.108E+00	 1.798E-01	-3.129E-02	 6.555E+01	 4.538E-01	 2.953E+01	 3.233E+00	 3.261E-02	 1.008E-01	 9.151E-03	-2.721E-02	 4.816E-02	-2.050E-01	 3.765E+01	 1.361E+01	 4.366E+00	-2.885E+00	 1.159E+00	 4.282E+00	 3.691E+01	-6.365E-01	-6.402E-01
  11.040	 3.571E+02	 1.091E+00	 1.801E-01	-2.972E-02	 4.525E+01	 3.165E+00	 3.037E+01	 3.395E+00	 3.280E-02	 1.002E-01	 9.505E-03	-3.025E-02	-4.104E-02	-1.992E-01	 3.611E+01	 1.575E+01	 4.366E+00	-2.454E+00	 1.317E+00	 4.250E+00	 3.670E+01	-1.079E+00	-1.082E+00
  11.060	 3.650E+00	 1.070E+00	 1.765E-01	-2.714E-02	 5.968E+01	-3.342E+00	 3.030E+01	 3.440E+00	 3.298E-02	 9.957E-02	 8.412E-03	-3.414E-02	-4.161E-02	 2.468E-02	 3.471E+01	 1.848E+01	 4.059E+00	-1.859E+00	 1.631E+00	 4.230E+00	 3.532E+01	-2.423E+00	-2.427E+00
  11.080	 1.017E+01	 1.032E+00	 1.702E-01	-2.557E-02	 6.930E+01	-3.825E+00	 2.891E+01	 3.045E+00	 3.314E-02	 9.892E-02	 7.036E-03	-2.928E-02	-1.190E-01	 4.032E-01	 3.519E+01	 1.987E+01	 4.364E+00	-1.422E+00	 1.706E+00	 3.963E+00	 3.456E+01	-2.610E+00	-2.613E+00
  11.100	 1.668E+01	 9.715E-01	 1.633E-01	-2.519E-02	 7.178E+01	-1.275E+00	 2.762E+01	 2.486E+00	 3.325E-02	 9.843E-02	 3.785E-03	-1.949E-02	-1.938E-01	 4.953E-01	 3.628E+01	 2.053E+01	 4.823E+00	-1.238E+00	 1.651E+00	 3.725E+00	 3.528E+01	-1.971E+00	-1.974E+00
  11.120	 2.319E+01	 8.979E-01	 1.594E-01	-2.505E-02	 7.245E+01	 9.544E-01	 2.790E+01	 2.183E+00	 3.328E-02	 9.812E-02	-1.382E-04	-1.244E-02	-1.873E-01	 1.498E-01	 3.630E+01	 2.188E+01	 4.946E+00	-1.030E+00	 1.731E+00	 3.826E+00	 3.648E+01	-1.792E+00	-1.794E+00
  11.140	 2.971E+01	 8.124E-01	 1.588E-01	-2.442E-02	 6.984E+01	 1.793E+00	 2.926E+01	 2.251E+00	 3.325E-02	 9.787E-02	-3.402E-03	-1.432E-02	-1.364E-01	-3.150E-01	 3.546E+01	 2.400E+01	 4.824E+00	-6.788E-01	 1.931E+00	 4.143E+00	 3.716E+01	-2.507E+00	-2.508E+00
  11.160	 3.622E+01	 7.156E-01	 1.606E-01	-2.320E-02	 6.570E+01	 1.201E+00	 3.027E+01	 2.502E+00	 3.315E-02	 9.750E-02	-5.594E-03	-2.258E-02	-8.644E-02	-4.241E-01	 3.480E+01	 2.649E+01	 4.697E+00	-1.941E-01	 2.180E+00	 4.419E+00	 3.694E+01	-3.872E+00	-3.873E+00
  11.180	 4.274E+01	 6.101E-01	 1.632E-01	-2.184E-02	 6.370E+01	-1.508E-01	 3.032E+01	 2.690E+00	 3.303E-02	 9.699E-02	-7.148E-03	-2.784E-02	-7.872E-02	-3.513E-02	 3.497E+01	 2.891E+01	 4.692E+00	 3.240E-01	 2.424E+00	 4.516E+00	 3.624E+01	-5.254E+00	-5.254E+00
  11.200	 4.925E+01	 4.976E-01	 1.661E-01	-2.094E-02	 6.417E+01	-9.553E-01	 2.957E+01	 2.670E+00	 3.287E-02	 9.646E-02	-9.117E-03	-2.286E-02	-1.249E-01	 5.176E-01	 3.585E+01	 3.075E+01	 4.820E+00	 7.371E-01	 2.595E+00	 4.456E+00	 3.578E+01	-6.096E+00	-6.094E+00
  11.220	 5.577E+01	 3.790E-01	 1.689E-01	-2.082E-02	 6.512E+01	-4.683E-01	 2.882E+01	 2.457E+00	 3.265E-02	 9.613E-02	-1.220E-02	-9.247E-03	-1.786E-01	 7.650E-01	 3.684E+01	 3.178E+01	 4.978E+00	 9.733E-01	 2.652E+00	 4.366E+00	 3.595E+01	-6.278E+00	-6.276E+00
  11.240	 6.228E+01	 2.551E-01	 1.718E-01	-2.128E-02	 6.509E+01	 8.812E-01	 2.867E+01	 2.186E+00	 3.237E-02	 9.609E-02	-1.587E-02	 4.430E-03	-1.743E-01	 5.317E-01	 3.742E+01	 3.220E+01	 5.053E+00	 1.073E+00	 2.624E+00	 4.359E+00	 3.653E+01	-6.088E+00	-6.085E+00
  11.260	 6.879E+01	 1.273E-01	 1.746E-01	-2.180E-02	 6.406E+01	 2.081E+00	 2.907E+01	 2.000E+00	 3.203E-02	 9.626E-02	-1.857E-02	 1.036E-02	-8.239E-02	 5.555E-02	 3.757E+01	 3.242E+01	 5.037E+00	 1.135E+00	 2.575E+00	 4.438E+00	 3.705E+01	-5.908E+00	-5.905E+00
  11.280	 7.531E+01	-3.252E-03	 1.767E-01	-2.195E-02	 6.295E+01	 2.373E+00	 2.955E+01	 1.967E+00	 3.165E-02	 9.645E-02	-1.880E-02	 7.796E-03	 6.267E-02	-2.559E-01	 3.763E+01	 3.283E+01	 5.000E+00	 1.238E+00	 2.568E+00	 4.523E+00	 3.718E+01	-5.897E+00	-5.893E+00
  11.300	 8.182E+01	-1.348E-01	 1.778E-01	-2.164E-02	 6.270E+01	 1.709E+00	 2.975E+01	 2.074E+00	 3.129E-02	 9.655E-02	-1.624E-02	 2.750E-03	 1.821E-01	-1.826E-01	 3.788E+01	 3.354E+01	 4.993E+00	 1.387E+00	 2.629E+00	 4.551E+00	 3.702E+01	-5.917E+00	-5.913E+00
  11.320	 8.834E+01	-2.651E-01	 1.776E-01	-2.112E-02	 6.334E+01	 6.672E-01	 2.966E+01	 2.243E+00	 3.101E-02	 9.659E-02	-1.211E-02	 2.353E-03	 2.144E-01	 1.640E-01	 3.831E+01	 3.434E+01	 5.016E+00	 1.524E+00	 2.728E+00	 4.521E+00	 3.687E+01	-5.726E+00	-5.723E+00
  11.340	 9.485E+01	-3.918E-01	 1.768E-01	-2.074E-02	 6.421E+01	-5.246E-02	 2.956E+01	 2.392E+00	 3.081E-02	 9.669E-02	-8.208E-03	 9.045E-03	 1.669E-01	 4.728E-01	 3.872E+01	 3.482E+01	 5.035E+00	 1.578E+00	 2.799E+00	 4.478E+00	 3.696E+01	-5.220E+00	-5.217E+00
  11.360	 1.014E+02	-5.126E-01	 1.757E-01	-2.074E-02	 6.469E+01	-1.205E-01	 2.965E+01	 2.474E+00	 3.067E-02	 9.698E-02	-5.539E-03	 1.931E-02	 1.043E-01	 5.007E-01	 3.896E+01	 3.468E+01	 5.010E+00	 1.517E+00	 2.786E+00	 4.456E+00	 3.724E+01	-4.483E+00	-4.480E+00
  11.380	 1.079E+02	-6.254E-01	 1.747E-01	-2.109E-02	 6.474E+01	 2.490E-01	 2.990E+01	 2.493E+00	 3.058E-02	 9.745E-02	-3.663E-03	 2.725E-02	 9.583E-02	 2.626E-01	 3.903E+01	 3.391E+01	 4.949E+00	 1.358E+00	 2.687E+00	 4.450E+00	 3.753E+01	-3.676E+00	-3.674E+00
  11.400	 1.144E+02	-7.285E-01	 1.740E-01	-2.160E-02	 6.464E+01	 5.951E-01	 3.008E+01	 2.497E+00	 3.053E-02	 9.803E-02	-1.226E-03	 2.941E-02	 1.571E-01	-3.690E-02	 3.910E+01	 3.277E+01	 4.879E+00	 1.152E+00	 2.546E+00	 4.429E+00	 3.765E+01	-2.903E+00	-2.901E+00
  11.420	 1.209E+02	-8.209E-01	 1.735E-01	-2.210E-02	 6.458E+01	 5.624E-01	 3.005E+01	 2.543E+00	 3.054E-02	 9.859E-02	 2.778E-03	 2.681E-02	 2.412E-01	-1.868E-01	 3.925E+01	 3.158E+01	 4.821E+00	 9.366E-01	 2.420E+00	 4.373E+00	 3.760E+01	-2.150E+00	-2.150E+00
  11.440	 1.274E+02	-9.016E-01	 1.731E-01	-2.252E-02	 6.458E+01	 1.374E-01	 2.985E+01	 2.651E+00	 3.065E-02	 9.909E-02	 8.147E-03	 2.338E-02	 2.855E-01	-1.250E-01	 3.949E+01	 3.049E+01	 4.779E+00	 7.102E-01	 2.333E+00	 4.296E+00	 3.752E+01	-1.386E+00	-1.386E+00
  11.460	 1.340E+02	-9.700E-01	 1.728E-01	-2.293E-02	 6.448E+01	-4.111E-01	 2.965E+01	 2.797E+00	 3.087E-02	 9.955E-02	 1.371E-02	 2.255E-02	 2.588E-01	 4.576E-02	 3.976E+01	 2.936E+01	 4.741E+00	 4.553E-01	 2.263E+00	 4.228E+00	 3.749E+01	-6.517E-01	-6.528E-01
  11.480	 1.405E+02	-1.025E+00	 1.724E-01	-2.345E-02	 6.435E+01	-8.254E-01	 2.957E+01	 2.940E+00	 3.119E-02	 1.000E-01	 1.815E-02	 2.487E-02	 1.808E-01	 1.681E-01	 3.997E+01	 2.803E+01	 4.695E+00	 1.488E-01	 2.175E+00	 4.198E+00	 3.754E+01	-4.160E-02	-4.340E-02
  11.500	 1.470E+02	-1.067E+00	 1.720E-01	-2.415E-02	 6.433E+01	-1.012E+00	 2.957E+01	 3.044E+00	 3.158E-02	 1.005E-01	 2.092E-02	 2.835E-02	 9.774E-02	 1.448E-01	 4.014E+01	 2.633E+01	 4.635E+00	-2.174E-01	 2.042E+00	 4.207E+00	 3.759E+01	 3.345E-01	 3.321E-01
  11.520	 1.535E+02	-1.096E+00	 1.714E-01	-2.501E-02	 6.432E+01	-9.748E-01	 2.961E+01	 3.102E+00	 3.202E-02	 1.011E-01	 2.233E-02	 3.001E-02	 4.978E-02	 1.315E-02	 4.034E+01	 2.428E+01	 4.590E+00	-6.285E-01	 1.863E+00	 4.235E+00	 3.757E+01	 4.235E-01	 4.206E-01
  11.540	 1.600E+02	-1.109E+00	 1.707E-01	-2.593E-02	 6.457E+01	-9.679E-01	 2.943E+01	 3.135E+00	 3.247E-02	 1.017E-01	 2.304E-02	 2.850E-02	 2.408E-02	-1.664E-01	 4.046E+01	 2.204E+01	 4.515E+00	-1.063E+00	 1.672E+00	 4.261E+00	 3.743E+01	 2.782E-01	 2.749E-01
  11.560	 1.665E+02	-1.110E+00	 1.698E-01	-2.685E-02	 6.475E+01	-1.032E+00	 2.791E+01	 3.190E+00	 3.294E-02	 1.023E-01	 2.341E-02	 2.363E-02	 1.235E-02	-3.211E-01	 4.018E+01	 1.958E+01	 4.362E+00	-1.523E+00	 1.527E+00	 4.276E+00	 3.711E+01	-2.024E-01	-2.060E-01
  11.580	 1.731E+02	-1.099E+00	 1.683E-01	-2.768E-02	 6.429E+01	-9.216E-01	 2.176E+01	 3.422E+00	 3.341E-02	 1.027E-01	 2.365E-02	 1.741E-02	 5.361E-04	-2.494E-01	 3.962E+01	 1.716E+01	 4.244E+00	-1.968E+00	 1.559E+00	 4.568E+00	 3.676E+01	-7.758E-01	-7.796E-01
  11.600	 1.796E+02	-1.079E+00	 1.659E-01	-2.833E-02	 6.475E+01	-1.324E+00	 3.337E+01	 3.742E+00	 3.387E-02	 1.030E-01	 2.243E-02	 1.141E-02	-1.082E-01	-4.046E-01	 3.718E+01	 1.411E+01	 3.690E+00	-2.490E+00	 1.116E+00	 4.983E+00	 3.617E+01	-1.656E+00	-1.659E+00
  11.620	 1.861E+02	-1.053E+00	 1.614E-01	-2.895E-02	 6.225E+01	-6.199E-01	 3.215E+01	 3.179E+00	 3.430E-02	 1.031E-01	 2.041E-02	 7.284E-03	-1.063E-01	 4.203E-02	 3.817E+01	 1.046E+01	 4.074E+00	-2.964E+00	 5.185E-01	 4.545E+00	 3.483E+01	-2.683E+00	-2.686E+00
  11.640	 1.926E+02	-1.005E+00	 1.587E-01	-2.937E-02	 6.774E+01	-2.220E+00	 3.004E+01	 3.137E+00	 3.468E-02	 1.033E-01	 1.714E-02	 1.093E-02	-2.187E-01	 3.023E-01	 3.939E+01	 9.430E+00	 4.184E+00	-3.249E+00	 5.160E-01	 3.988E+00	 3.463E+01	-2.412E+00	-2.415E+00
  11.660	 1.991E+02	-9.391E-01	 1.589E-01	-2.983E-02	 7.047E+01	-3.628E+00	 2.852E+01	 3.538E+00	 3.497E-02	 1.036E-01	 1.211E-02	 1.662E-02	-2.695E-01	 1.914E-01	 4.018E+01	 9.524E+00	 4.244E+00	-3.531E+00	 7.001E-01	 3.619E+00	 3.567E+01	-1.861E+00	-1.864E+00
  11.680	 2.056E+02	-8.611E-01	 1.617E-01	-3.069E-02	 6.741E+01	-3.650E+00	 2.841E+01	 3.918E+00	 3.516E-02	 1.039E-01	 6.864E-03	 1.608E-02	-2.461E-01	-2.771E-01	 4.004E+01	 8.822E+00	 4.144E+00	-3.907E+00	 7.457E-01	 3.545E+00	 3.678E+01	-2.015E+00	-2.016E+00
  11.700	 2.121E+02	-7.713E-01	 1.662E-01	-3.199E-02	 6.330E+01	-3.093E+00	 2.931E+01	 4.033E+00	 3.525E-02	 1.042E-01	 2.429E-03	 6.015E-03	-1.962E-01	-6.745E-01	 3.936E+01	 6.813E+00	 3.890E+00	-4.357E+00	 5.708E-01	 3.743E+00	 3.713E+01	-3.032E+00	-3.032E+00
  11.720	 2.187E+02	-6.713E-01	 1.706E-01	-3.352E-02	 6.139E+01	-2.438E+00	 3.005E+01	 3.862E+00	 3.527E-02	 1.041E-01	-1.073E-03	-7.616E-03	-1.604E-01	-5.974E-01	 3.907E+01	 3.860E+00	 3.725E+00	-4.827E+00	 2.277E-01	 3.997E+00	 3.666E+01	-4.486E+00	-4.486E+00
  11.740	 2.252E+02	-5.636E-01	 1.735E-01	-3.501E-02	 6.200E+01	-1.980E+00	 2.994E+01	 3.602E+00	 3.521E-02	 1.039E-01	-4.348E-03	-1.496E-02	-1.770E-01	-9.710E-02	 3.968E+01	 9.929E-01	 3.784E+00	-5.251E+00	-1.173E-01	 4.138E+00	 3.599E+01	-5.708E+00	-5.707E+00
  11.760	 2.317E+02	-4.495E-01	 1.751E-01	-3.615E-02	 6.406E+01	-2.055E+00	 2.927E+01	 3.505E+00	 3.509E-02	 1.036E-01	-8.441E-03	-1.164E-02	-2.351E-01	 3.843E-01	 4.078E+01	-7.509E-01	 3.969E+00	-5.569E+00	-2.873E-01	 4.183E+00	 3.577E+01	-6.284E+00	-6.282E+00
  11.780	 2.382E+02	-3.296E-01	 1.763E-01	-3.680E-02	 6.552E+01	-2.647E+00	 2.876E+01	 3.677E+00	 3.487E-02	 1.035E-01	-1.362E-02	-2.466E-03	-2.740E-01	 4.486E-01	 4.170E+01	-1.171E+00	 4.126E+00	-5.774E+00	-2.516E-01	 4.232E+00	 3.615E+01	-6.270E+00	-6.267E+00
  11.800	 2.447E+02	-2.050E-01	 1.778E-01	-3.709E-02	 6.529E+01	-3.425E+00	 2.878E+01	 4.003E+00	 3.454E-02	 1.035E-01	-1.887E-02	 3.357E-03	-2.357E-01	 8.383E-02	 4.208E+01	-9.201E-01	 4.183E+00	-5.907E+00	-1.256E-01	 4.339E+00	 3.677E+01	-6.034E+00	-6.031E+00
  11.820	 2.512E+02	-7.689E-02	 1.796E-01	-3.728E-02	 6.415E+01	-4.007E+00	 2.913E+01	 4.257E+00	 3.412E-02	 1.035E-01	-2.248E-02	 3.069E-04	-1.135E-01	-3.671E-01	 4.209E+01	-8.509E-01	 4.169E+00	-6.021E+00	-5.415E-02	 4.478E+00	 3.717E+01	-5.905E+00	-5.901E+00
  11.840	 2.577E+02	 5.339E-02	 1.814E-01	-3.761E-02	 6.350E+01	-4.116E+00	 2.937E+01	 4.286E+00	 3.366E-02	 1.035E-01	-2.322E-02	-9.325E-03	 3.634E-02	-5.296E-01	 4.207E+01	-1.399E+00	 4.158E+00	-6.148E+00	-1.078E-01	 4.578E+00	 3.717E+01	-5.924E+00	-5.920E+00
  11.860	 2.643E+02	 1.840E-01	 1.826E-01	-3.812E-02	 6.387E+01	-3.708E+00	 2.927E+01	 4.104E+00	 3.321E-02	 1.032E-01	-2.139E-02	-1.824E-02	 1.328E-01	-3.080E-01	 4.217E+01	-2.371E+00	 4.192E+00	-6.283E+00	-2.514E-01	 4.597E+00	 3.699E+01	-5.883E+00	-5.879E+00
  11.880	 2.708E+02	 3.126E-01	 1.833E-01	-3.867E-02	 6.473E+01	-3.063E+00	 2.897E+01	 3.864E+00	 3.281E-02	 1.028E-01	-1.855E-02	-2.051E-02	 1.360E-01	 8.179E-02	 4.231E+01	-3.177E+00	 4.257E+00	-6.388E+00	-3.838E-01	 4.551E+00	 3.692E+01	-5.569E+00	-5.566E+00
  11.900	 2.773E+02	 4.369E-01	 1.836E-01	-3.898E-02	 6.532E+01	-2.595E+00	 2.875E+01	 3.720E+00	 3.247E-02	 1.024E-01	-1.635E-02	-1.599E-02	 8.044E-02	 3.238E-01	 4.227E+01	-3.293E+00	 4.310E+00	-6.415E+00	-4.165E-01	 4.490E+00	 3.710E+01	-4.959E+00	-4.956E+00
  11.920	 2.838E+02	 5.546E-01	 1.836E-01	-3.887E-02	 6.529E+01	-2.546E+00	 2.873E+01	 3.717E+00	 3.215E-02	 1.021E-01	-1.523E-02	-9.634E-03	 4.002E-02	 2.629E-01	 4.198E+01	-2.622E+00	 4.332E+00	-6.344E+00	-3.361E-01	 4.447E+00	 3.742E+01	-4.179E+00	-4.177E+00
  11.940	 2.903E+02	 6.640E-01	 1.831E-01	-3.838E-02	 6.499E+01	-2.834E+00	 2.884E+01	 3.783E+00	 3.186E-02	 1.020E-01	-1.427E-02	-6.841E-03	 6.868E-02	 1.161E-03	 4.155E+01	-1.467E+00	 4.342E+00	-6.187E+00	-1.949E-01	 4.423E+00	 3.766E+01	-3.385E+00	-3.383E+00
  11.960	 2.968E+02	 7.634E-01	 1.822E-01	-3.769E-02	 6.502E+01	-3.125E+00	 2.893E+01	 3.804E+00	 3.159E-02	 1.018E-01	-1.208E-02	-9.375E-03	 1.561E-01	-2.312E-01	 4.115E+01	-2.370E-01	 4.368E+00	-5.981E+00	-5.837E-02	 4.407E+00	 3.771E+01	-2.632E+00	-2.631E+00
  11.980	 3.034E+02	 8.518E-01	 1.808E-01	-3.700E-02	 6.555E+01	-3.098E+00	 2.897E+01	 3.720E+00	 3.139E-02	 1.016E-01	-8.044E-03	-1.475E-02	 2.413E-01	-2.691E-01	 4.084E+01	 8.485E-01	 4.420E+00	-5.756E+00	 3.829E-02	 4.390E+00	 3.764E+01	-1.882E+00	-1.881E+00
  12.000	 3.099E+02	 9.285E-01	 1.794E-01	-3.639E-02	 6.621E+01	-2.701E+00	 2.902E+01	 3.563E+00	 3.128E-02	 1.013E-01	-2.809E-03	-1.884E-02	 2.703E-01	-1.171E-01	 4.059E+01	 1.875E+00	 4.487E+00	-5.516E+00	 1.044E-01	 4.376E+00	 3.757E+01	-1.125E+00	-1.125E+00
  12.020	 3.164E+02	 9.929E-01	 1.782E-01	-3.581E-02	 6.658E+01	-2.152E+00	 2.908E+01	 3.405E+00	 3.127E-02	 1.009E-01	 2.291E-03	-1.912E-02	 2.300E-01	 8.372E-02	 4.030E+01	 3.065E+00	 4.539E+00	-5.242E+00	 1.841E-01	 4.368E+00	 3.758E+01	-4.285E-01	-4.298E-01
  12.040	 3.229E+02	 1.044E+00	 1.776E-01	-3.514E-02	 6.642E+01	-1.689E+00	 2.915E+01	 3.298E+00	 3.136E-02	 1.005E-01	 6.159E-03	-1.613E-02	 1.561E-01	 1.955E-01	 3.994E+01	 4.595E+00	 4.575E+00	-4.918E+00	 3.088E-01	 4.360E+00	 3.764E+01	 1.041E-01	 1.022E-01
  12.060	 3.294E+02	 1.082E+00	 1.774E-01	-3.432E-02	 6.589E+01	-1.450E+00	 2.922E+01	 3.257E+00	 3.151E-02	 1.002E-01	 8.578E-03	-1.249E-02	 9.171E-02	 1.462E-01	 3.952E+01	 6.488E+00	 4.565E+00	-4.527E+00	 4.820E-01	 4.344E+00	 3.767E+01	 3.680E-01	 3.655E-01
  12.080	 3.360E+02	 1.105E+00	 1.777E-01	-3.337E-02	 6.539E+01	-1.406E+00	 2.919E+01	 3.235E+00	 3.170E-02	 1.000E-01	 1.011E-02	-1.067E-02	 6.555E-02	 2.844E-02	 3.912E+01	 8.598E+00	 4.557E+00	-4.091E+00	 6.833E-01	 4.318E+00	 3.762E+01	 3.839E-01	 3.809E-01
  12.100	 3.425E+02	 1.115E+00	 1.780E-01	-3.240E-02	 6.535E+01	-1.308E+00	 2.927E+01	 3.245E+00	 3.191E-02	 9.978E-02	 1.127E-02	-1.175E-02	 5.511E-02	-1.240E-01	 3.858E+01	 1.079E+01	 4.466E+00	-3.596E+00	 8.835E-01	 4.290E+00	 3.743E+01	 1.313E-01	 1.280E-01
  12.120	 3.490E+02	 1.112E+00	 1.790E-01	-3.148E-02	 6.778E+01	-4.750E-01	 2.958E+01	 3.277E+00	 3.215E-02	 9.952E-02	 1.235E-02	-1.538E-02	 5.643E-02	-2.111E-01	 3.772E+01	 1.306E+01	 4.316E+00	-3.020E+00	 1.098E+00	 4.276E+00	 3.699E+01	-4.881E-01	-4.917E-01
  12.140	 3.555E+02	 1.098E+00	 1.803E-01	-3.023E-02	 4.459E+01	 3.930E+00	 2.997E+01	 3.258E+00	 3.240E-02	 9.918E-02	 1.330E-02	-1.793E-02	 6.032E-03	-8.969E-02	 3.664E+01	 1.515E+01	 4.441E+00	-2.561E+00	 1.287E+00	 4.251E+00	 3.678E+01	-8.717E-01	-8.754E-01
  12.160	 2.021E+00	 1.077E+00	 1.773E-01	-2.772E-02	 5.790E+01	-2.273E+00	 3.077E+01	 3.546E+00	 3.266E-02	 9.878E-02	 1.252E-02	-2.161E-02	-4.518E-02	-1.255E-01	 3.461E+01	 1.784E+01	 4.022E+00	-1.989E+00	 1.543E+00	 4.241E+00	 3.563E+01	-2.193E+00	-2.197E+00
  12.180	 8.537E+00	 1.044E+00	 1.717E-01	-2.579E-02	 6.820E+01	-4.172E+00	 2.932E+01	 3.187E+00	 3.291E-02	 9.837E-02	 1.155E-02	-1.846E-02	-8.725E-02	 3.487E-01	 3.486E+01	 1.966E+01	 4.247E+00	-1.501E+00	 1.709E+00	 4.040E+00	 3.457E+01	-2.689E+00	-2.693E+00
  12.200	 1.505E+01	 9.885E-01	 1.646E-01	-2.519E-02	 7.135E+01	-1.972E+00	 2.784E+01	 2.617E+00	 3.311E-02	 9.809E-02	 8.781E-03	-9.093E-03	-1.807E-01	 5.262E-01	 3.600E+01	 2.033E+01	 4.721E+00	-1.276E+00	 1.656E+00	 3.751E+00	 3.499E+01	-2.124E+00	-2.127E+00
  12.220	 2.157E+01	 9.176E-01	 1.598E-01	-2.508E-02	 7.255E+01	 5.182E-01	 2.769E+01	 2.223E+00	 3.325E-02	 9.800E-02	 4.880E-03	-4.489E-04	-1.959E-01	 2.674E-01	 3.635E+01	 2.145E+01	 4.941E+00	-1.091E+00	 1.695E+00	 3.763E+00	 3.617E+01	-1.763E+00	-1.765E+00
  12.240	 2.808E+01	 8.349E-01	 1.585E-01	-2.462E-02	 7.079E+01	 1.729E+00	 2.890E+01	 2.207E+00	 3.331E-02	 9.801E-02	 1.327E-03	-3.648E-05	-1.544E-01	-2.254E-01	 3.564E+01	 2.342E+01	 4.857E+00	-7.786E-01	 1.873E+00	 4.051E+00	 3.705E+01	-2.258E+00	-2.259E+00
  12.260	 3.459E+01	 7.405E-01	 1.599E-01	-2.352E-02	 6.662E+01	 1.470E+00	 3.008E+01	 2.437E+00	 3.331E-02	 9.794E-02	-1.240E-03	-7.748E-03	-1.039E-01	-4.678E-01	 3.486E+01	 2.585E+01	 4.716E+00	-3.213E-01	 2.115E+00	 4.358E+00	 3.704E+01	-3.511E+00	-3.512E+00
  12.280	 4.111E+01	 6.368E-01	 1.625E-01	-2.214E-02	 6.387E+01	 1.944E-01	 3.040E+01	 2.660E+00	 3.327E-02	 9.770E-02	-3.046E-03	-1.521E-02	-8.538E-02	-1.977E-01	 3.482E+01	 2.833E+01	 4.677E+00	 2.015E-01	 2.366E+00	 4.505E+00	 3.639E+01	-4.955E+00	-4.954E+00
  12.300	 4.762E+01	 5.260E-01	 1.653E-01	-2.108E-02	 6.389E+01	-8.624E-01	 2.978E+01	 2.696E+00	 3.319E-02	 9.740E-02	-5.043E-03	-1.372E-02	-1.226E-01	 3.535E-01	 3.559E+01	 3.036E+01	 4.782E+00	 6.519E-01	 2.561E+00	 4.476E+00	 3.582E+01	-5.963E+00	-5.962E+00
  12.320	 5.414E+01	 4.088E-01	 1.682E-01	-2.078E-02	 6.492E+01	-7.042E-01	 2.894E+01	 2.522E+00	 3.306E-02	 9.722E-02	-8.112E-03	-2.462E-03	-1.827E-01	 7.039E-01	 3.663E+01	 3.159E+01	 4.949E+00	 9.328E-01	 2.647E+00	 4.381E+00	 3.583E+01	-6.296E+00	-6.294E+00
  12.340	 6.065E+01	 2.862E-01	 1.711E-01	-2.114E-02	 6.520E+01	 5.136E-01	 2.862E+01	 2.251E+00	 3.286E-02	 9.731E-02	-1.206E-02	 1.114E-02	-1.998E-01	 5.763E-01	 3.736E+01	 3.213E+01	 5.054E+00	 1.058E+00	 2.635E+00	 4.350E+00	 3.636E+01	-6.161E+00	-6.159E+00
  12.360	 6.716E+01	 1.593E-01	 1.740E-01	-2.170E-02	 6.435E+01	 1.841E+00	 2.891E+01	 2.035E+00	 3.258E-02	 9.762E-02	-1.552E-02	 1.831E-02	-1.313E-01	 1.163E-01	 3.761E+01	 3.237E+01	 5.058E+00	 1.121E+00	 2.585E+00	 4.415E+00	 3.694E+01	-5.951E+00	-5.947E+00
  12.380	 7.368E+01	 2.946E-02	 1.765E-01	-2.197E-02	 6.314E+01	 2.393E+00	 2.942E+01	 1.963E+00	 3.225E-02	 9.798E-02	-1.685E-02	 1.627E-02	 4.557E-03	-2.761E-01	 3.767E+01	 3.271E+01	 5.020E+00	 1.210E+00	 2.564E+00	 4.509E+00	 3.718E+01	-5.898E+00	-5.894E+00
  12.400	 8.019E+01	-1.018E-01	 1.778E-01	-2.177E-02	 6.262E+01	 1.934E+00	 2.969E+01	 2.039E+00	 3.192E-02	 9.824E-02	-1.536E-02	 9.772E-03	 1.365E-01	-3.055E-01	 3.787E+01	 3.335E+01	 5.008E+00	 1.351E+00	 2.608E+00	 4.556E+00	 3.706E+01	-5.931E+00	-5.927E+00
  12.420	 8.671E+01	-2.324E-01	 1.780E-01	-2.127E-02	 6.309E+01	 9.157E-01	 2.965E+01	 2.200E+00	 3.165E-02	 9.839E-02	-1.191E-02	 6.340E-03	 1.926E-01	-3.145E-03	 3.829E+01	 3.416E+01	 5.030E+00	 1.497E+00	 2.703E+00	 4.538E+00	 3.689E+01	-5.807E+00	-5.804E+00
  12.440	 9.323E+01	-3.600E-01	 1.773E-01	-2.084E-02	 6.398E+01	 6.315E-02	 2.952E+01	 2.359E+00	 3.145E-02	 9.855E-02	-8.264E-03	 9.937E-03	 1.602E-01	 3.426E-01	 3.873E+01	 3.476E+01	 5.055E+00	 1.577E+00	 2.787E+00	 4.495E+00	 3.690E+01	-5.376E+00	-5.372E+00
  12.460	 9.974E+01	-4.823E-01	 1.763E-01	-2.073E-02	 6.459E+01	-1.677E-01	 2.957E+01	 2.460E+00	 3.131E-02	 9.882E-02	-5.732E-03	 1.839E-02	 9.386E-02	 4.492E-01	 3.903E+01	 3.479E+01	 5.042E+00	 1.545E+00	 2.798E+00	 4.467E+00	 3.716E+01	-4.679E+00	-4.677E+00
  12.480	 1.063E+02	-5.971E-01	 1.753E-01	-2.101E-02	 6.473E+01	 1.316E-01	 2.979E+01	 2.490E+00	 3.121E-02	 9.927E-02	-4.229E-03	 2.591E-02	 6.783E-02	 2.636E-01	 3.913E+01	 3.416E+01	 4.988E+00	 1.406E+00	 2.718E+00	 4.460E+00	 3.747E+01	-3.874E+00	-3.872E+00
  12.500	 1.128E+02	-7.026E-01	 1.745E-01	-2.151E-02	 6.463E+01	 5.265E-01	 3.001E+01	 2.492E+00	 3.114E-02	 9.982E-02	-2.519E-03	 2.812E-02	 1.143E-01	-4.227E-02	 3.919E+01	 3.308E+01	 4.918E+00	 1.207E+00	 2.582E+00	 4.446E+00	 3.764E+01	-3.090E+00	-3.088E+00
  12.520	 1.193E+02	-7.976E-01	 1.740E-01	-2.202E-02	 6.455E+01	 6.026E-01	 3.004E+01	 2.522E+00	 3.112E-02	 1.004E-01	 6.090E-04	 2.497E-02	 1.997E-01	-2.401E-01	 3.931E+01	 3.188E+01	 4.856E+00	 9.912E-01	 2.448E+00	 4.398E+00	 3.763E+01	-2.338E+00	-2.337E+00
  12.540	 1.258E+02	-8.812E-01	 1.735E-01	-2.246E-02	 6.456E+01	 2.676E-01	 2.988E+01	 2.613E+00	 3.118E-02	 1.008E-01	 5.282E-03	 1.997E-02	 2.590E-01	-2.246E-01	 3.953E+01	 3.076E+01	 4.808E+00	 7.702E-01	 2.352E+00	 4.323E+00	 3.754E+01	-1.576E+00	-1.576E+00
  12.560	 1.323E+02	-9.527E-01	 1.732E-01	-2.286E-02	 6.450E+01	-2.837E-01	 2.966E+01	 2.755E+00	 3.134E-02	 1.012E-01	 1.052E-02	 1.700E-02	 2.522E-01	-6.119E-02	 3.979E+01	 2.966E+01	 4.770E+00	 5.232E-01	 2.281E+00	 4.250E+00	 3.750E+01	-8.292E-01	-8.300E-01
  12.580	 1.388E+02	-1.012E+00	 1.729E-01	-2.335E-02	 6.436E+01	-7.464E-01	 2.955E+01	 2.902E+00	 3.159E-02	 1.015E-01	 1.496E-02	 1.744E-02	 1.853E-01	 9.089E-02	 4.002E+01	 2.839E+01	 4.725E+00	 2.303E-01	 2.200E+00	 4.208E+00	 3.753E+01	-1.808E-01	-1.824E-01
  12.600	 1.454E+02	-1.057E+00	 1.724E-01	-2.400E-02	 6.429E+01	-9.887E-01	 2.956E+01	 3.019E+00	 3.192E-02	 1.019E-01	 1.784E-02	 1.983E-02	 1.024E-01	 1.183E-01	 4.020E+01	 2.679E+01	 4.671E+00	-1.216E-01	 2.079E+00	 4.208E+00	 3.760E+01	 2.642E-01	 2.619E-01
  12.620	 1.519E+02	-1.089E+00	 1.719E-01	-2.483E-02	 6.430E+01	-9.936E-01	 2.958E+01	 3.084E+00	 3.230E-02	 1.023E-01	 1.923E-02	 2.116E-02	 4.520E-02	 5.112E-03	 4.036E+01	 2.482E+01	 4.614E+00	-5.244E-01	 1.910E+00	 4.232E+00	 3.760E+01	 4.129E-01	 4.101E-01
  12.640	 1.584E+02	-1.106E+00	 1.712E-01	-2.574E-02	 6.455E+01	-1.002E+00	 2.942E+01	 3.127E+00	 3.269E-02	 1.027E-01	 1.985E-02	 1.973E-02	 1.698E-02	-1.677E-01	 4.049E+01	 2.261E+01	 4.541E+00	-9.582E-01	 1.719E+00	 4.259E+00	 3.750E+01	 3.255E-01	 3.223E-01
  12.660	 1.649E+02	-1.110E+00	 1.703E-01	-2.666E-02	 6.470E+01	-1.012E+00	 2.863E+01	 3.171E+00	 3.309E-02	 1.031E-01	 2.008E-02	 1.493E-02	 6.335E-03	-3.114E-01	 4.038E+01	 2.023E+01	 4.428E+00	-1.406E+00	 1.551E+00	 4.272E+00	 3.723E+01	-4.681E-02	-5.032E-02
  12.680	 1.714E+02	-1.102E+00	 1.690E-01	-2.752E-02	 6.426E+01	-8.778E-01	 2.289E+01	 3.284E+00	 3.349E-02	 1.033E-01	 2.021E-02	 8.028E-03	 7.420E-03	-3.017E-01	 3.993E+01	 1.771E+01	 4.307E+00	-1.859E+00	 1.557E+00	 4.490E+00	 3.681E+01	-6.915E-01	-6.952E-01
  12.700	 1.779E+02	-1.084E+00	 1.670E-01	-2.820E-02	 6.512E+01	-1.407E+00	 3.045E+01	 3.836E+00	 3.389E-02	 1.034E-01	 1.945E-02	 2.292E-03	-9.937E-02	-3.807E-01	 3.779E+01	 1.516E+01	 3.803E+00	-2.349E+00	 1.283E+00	 4.933E+00	 3.653E+01	-1.259E+00	-1.262E+00
  12.720	 1.845E+02	-1.061E+00	 1.627E-01	-2.884E-02	 6.180E+01	-4.342E-01	 3.354E+01	 3.262E+00	 3.426E-02	 1.034E-01	 1.738E-02	-3.950E-03	-9.402E-02	-5.971E-02	 3.794E+01	 1.118E+01	 4.030E+00	-2.855E+00	 6.025E-01	 4.691E+00	 3.512E+01	-2.531E+00	-2.535E+00
  12.740	 1.910E+02	-1.020E+00	 1.592E-01	-2.930E-02	 6.633E+01	-1.728E+00	 3.052E+01	 3.076E+00	 3.458E-02	 1.033E-01	 1.467E-02	-1.696E-03	-1.903E-01	 2.554E-01	 3.908E+01	 9.473E+00	 4.155E+00	-3.187E+00	 4.824E-01	 4.116E+00	 3.453E+01	-2.577E+00	-2.580E+00
  12.760	 1.975E+02	-9.576E-01	 1.587E-01	-2.970E-02	 7.043E+01	-3.413E+00	 2.881E+01	 3.424E+00	 3.483E-02	 1.033E-01	 1.003E-02	 4.390E-03	-2.603E-01	 2.727E-01	 4.007E+01	 9.531E+00	 4.240E+00	-3.455E+00	 6.584E-01	 3.689E+00	 3.538E+01	-1.954E+00	-1.957E+00
  12.780	 2.040E+02	-8.826E-01	 1.608E-01	-3.044E-02	 6.850E+01	-3.736E+00	 2.832E+01	 3.842E+00	 3.498E-02	 1.035E-01	 4.821E-03	 6.369E-03	-2.494E-01	-1.261E-01	 4.016E+01	 9.127E+00	 4.188E+00	-3.805E+00	 7.548E-01	 3.532E+00	 3.657E+01	-1.882E+00	-1.883E+00
  12.800	 2.105E+02	-7.959E-01	 1.650E-01	-3.163E-02	 6.418E+01	-3.259E+00	 2.908E+01	 4.037E+00	 3.503E-02	 1.035E-01	 3.054E-04	-1.041E-03	-1.997E-01	-5.807E-01	 3.952E+01	 7.444E+00	 3.953E+00	-4.240E+00	 6.351E-01	 3.677E+00	 3.715E+01	-2.699E+00	-2.700E+00
  12.820	 2.170E+02	-6.983E-01	 1.695E-01	-3.313E-02	 6.163E+01	-2.602E+00	 2.996E+01	 3.927E+00	 3.500E-02	 1.034E-01	-3.185E-03	-1.406E-02	-1.538E-01	-6.311E-01	 3.904E+01	 4.652E+00	 3.741E+00	-4.711E+00	 3.226E-01	 3.938E+00	 3.685E+01	-4.104E+00	-4.104E+00
  12.840	 2.235E+02	-5.925E-01	 1.728E-01	-3.465E-02	 6.166E+01	-2.060E+00	 3.007E+01	 3.666E+00	 3.491E-02	 1.030E-01	-6.159E-03	-2.295E-02	-1.535E-01	-1.984E-01	 3.942E+01	 1.649E+00	 3.744E+00	-5.153E+00	-4.110E-02	 4.113E+00	 3.615E+01	-5.439E+00	-5.439E+00
  12.860	 2.301E+02	-4.800E-01	 1.747E-01	-3.589E-02	 6.354E+01	-1.986E+00	 2.948E+01	 3.510E+00	 3.475E-02	 1.025E-01	-9.679E-03	-2.127E-02	-2.039E-01	 3.404E-01	 4.046E+01	-4.353E-01	 3.910E+00	-5.500E+00	-2.648E-01	 4.174E+00	 3.577E+01	-6.189E+00	-6.188E+00
  12.880	 2.366E+02	-3.614E-01	 1.759E-01	-3.667E-02	 6.533E+01	-2.472E+00	 2.887E+01	 3.618E+00	 3.451E-02	 1.022E-01	-1.431E-02	-1.172E-02	-2.527E-01	 5.331E-01	 4.147E+01	-1.152E+00	 4.083E+00	-5.731E+00	-2.739E-01	 4.213E+00	 3.602E+01	-6.296E+00	-6.294E+00
  12.900	 2.431E+02	-2.377E-01	 1.773E-01	-3.702E-02	 6.552E+01	-3.242E+00	 2.875E+01	 3.927E+00	 3.417E-02	 1.021E-01	-1.934E-02	-3.170E-03	-2.359E-01	 2.575E-01	 4.198E+01	-9.833E-01	 4.165E+00	-5.876E+00	-1.558E-01	 4.304E+00	 3.663E+01	-6.079E+00	-6.076E+00
  12.920	 2.496E+02	-1.103E-01	 1.790E-01	-3.721E-02	 6.447E+01	-3.907E+00	 2.906E+01	 4.220E+00	 3.375E-02	 1.020E-01	-2.314E-02	-2.721E-03	-1.308E-01	-2.090E-01	 4.205E+01	-8.029E-01	 4.161E+00	-5.990E+00	-5.970E-02	 4.441E+00	 3.712E+01	-5.909E+00	-5.905E+00
  12.940	 2.561E+02	 1.980E-02	 1.808E-01	-3.748E-02	 6.359E+01	-4.149E+00	 2.937E+01	 4.312E+00	 3.327E-02	 1.019E-01	-2.425E-02	-1.006E-02	 2.048E-02	-4.637E-01	 4.200E+01	-1.190E+00	 4.142E+00	-6.113E+00	-8.126E-02	 4.556E+00	 3.721E+01	-5.905E+00	-5.901E+00
  12.960	 2.626E+02	 1.507E-01	 1.821E-01	-3.795E-02	 6.373E+01	-3.855E+00	 2.935E+01	 4.172E+00	 3.280E-02	 1.016E-01	-2.256E-02	-1.860E-02	 1.371E-01	-3.269E-01	 4.206E+01	-2.105E+00	 4.161E+00	-6.249E+00	-2.104E-01	 4.595E+00	 3.704E+01	-5.906E+00	-5.902E+00
  12.980	 2.692E+02	 2.802E-01	 1.829E-01	-3.851E-02	 6.455E+01	-3.234E+00	 2.908E+01	 3.930E+00	 3.237E-02	 1.012E-01	-1.939E-02	-2.149E-02	 1.637E-01	 5.195E-02	 4.220E+01	-3.012E+00	 4.222E+00	-6.365E+00	-3.557E-01	 4.561E+00	 3.691E+01	-5.676E+00	-5.672E+00
  13.000	 2.757E+02	 4.060E-01	 1.833E-01	-3.890E-02	 6.526E+01	-2.685E+00	 2.882E+01	 3.752E+00	 3.202E-02	 1.008E-01	-1.651E-02	-1.704E-02	 1.164E-01	 3.550E-01	 4.222E+01	-3.331E+00	 4.282E+00	-6.415E+00	-4.181E-01	 4.499E+00	 3.703E+01	-5.133E+00	-5.130E+00
  13.020	 2.822E+02	 5.258E-01	 1.833E-01	-3.890E-02	 6.538E+01	-2.524E+00	 2.874E+01	 3.716E+00	 3.171E-02	 1.005E-01	-1.476E-02	-9.301E-03	 6.436E-02	 3.671E-01	 4.199E+01	-2.844E+00	 4.310E+00	-6.369E+00	-3.634E-01	 4.449E+00	 3.734E+01	-4.381E+00	-4.378E+00
  13.040	 2.887E+02	 6.376E-01	 1.830E-01	-3.849E-02	 6.509E+01	-2.751E+00	 2.883E+01	 3.775E+00	 3.142E-02	 1.004E-01	-1.352E-02	-4.042E-03	 7.304E-02	 1.331E-01	 4.158E+01	-1.773E+00	 4.320E+00	-6.231E+00	-2.310E-01	 4.421E+00	 3.761E+01	-3.580E+00	-3.578E+00
  13.060	 2.952E+02	 7.397E-01	 1.822E-01	-3.783E-02	 6.500E+01	-3.075E+00	 2.894E+01	 3.816E+00	 3.117E-02	 1.003E-01	-1.138E-02	-4.174E-03	 1.490E-01	-1.312E-01	 4.115E+01	-5.322E-01	 4.340E+00	-6.034E+00	-8.869E-02	 4.404E+00	 3.771E+01	-2.818E+00	-2.817E+00
  13.080	 3.017E+02	 8.311E-01	 1.809E-01	-3.712E-02	 6.541E+01	-3.143E+00	 2.899E+01	 3.757E+00	 3.098E-02	 1.002E-01	-7.454E-03	-8.134E-03	 2.399E-01	-2.282E-01	 4.082E+01	 5.902E-01	 4.387E+00	-5.812E+00	 1.852E-02	 4.387E+00	 3.765E+01	-2.071E+00	-2.070E+00
  13.100	 3.083E+02	 9.108E-01	 1.794E-01	-3.650E-02	 6.608E+01	-2.825E+00	 2.902E+01	 3.611E+00	 3.088E-02	 1.000E-01	-2.102E-03	-1.189E-02	 2.846E-01	-1.187E-01	 4.057E+01	 1.611E+00	 4.454E+00	-5.577E+00	 8.839E-02	 4.372E+00	 3.757E+01	-1.310E+00	-1.310E+00
  13.120	 3.148E+02	 9.783E-01	 1.782E-01	-3.592E-02	 6.656E+01	-2.288E+00	 2.908E+01	 3.446E+00	 3.090E-02	 9.975E-02	 3.435E-03	-1.228E-02	 2.579E-01	 8.018E-02	 4.030E+01	 2.735E+00	 4.513E+00	-5.314E+00	 1.608E-01	 4.363E+00	 3.756E+01	-5.885E-01	-5.896E-01
  13.140	 3.213E+02	 1.033E+00	 1.774E-01	-3.529E-02	 6.652E+01	-1.782E+00	 2.916E+01	 3.325E+00	 3.101E-02	 9.953E-02	 7.901E-03	-9.136E-03	 1.850E-01	 2.141E-01	 3.996E+01	 4.171E+00	 4.550E+00	-5.003E+00	 2.722E-01	 4.356E+00	 3.761E+01	-3.912E-03	-5.731E-03
  13.160	 3.278E+02	 1.074E+00	 1.772E-01	-3.451E-02	 6.602E+01	-1.480E+00	 2.922E+01	 3.270E+00	 3.120E-02	 9.940E-02	 1.085E-02	-4.702E-03	 1.121E-01	 1.968E-01	 3.955E+01	 5.976E+00	 4.555E+00	-4.630E+00	 4.333E-01	 4.342E+00	 3.765E+01	 3.371E-01	 3.347E-01
  13.180	 3.343E+02	 1.101E+00	 1.774E-01	-3.359E-02	 6.552E+01	-1.408E+00	 2.920E+01	 3.237E+00	 3.144E-02	 9.934E-02	 1.267E-02	-1.829E-03	 7.698E-02	 8.699E-02	 3.916E+01	 8.053E+00	 4.553E+00	-4.204E+00	 6.335E-01	 4.320E+00	 3.763E+01	 4.043E-01	 4.014E-01
  13.200	 3.408E+02	 1.114E+00	 1.777E-01	-3.261E-02	 6.516E+01	-1.335E+00	 2.923E+01	 3.224E+00	 3.171E-02	 9.931E-02	 1.399E-02	-1.784E-03	 5.983E-02	-7.054E-02	 3.870E+01	 1.022E+01	 4.484E+00	-3.725E+00	 8.362E-01	 4.291E+00	 3.747E+01	 2.345E-01	 2.313E-01
  13.220	 3.474E+02	 1.114E+00	 1.785E-01	-3.168E-02	 6.682E+01	-8.852E-01	 2.953E+01	 3.288E+00	 3.200E-02	 9.925E-02	 1.513E-02	-4.610E-03	 5.375E-02	-2.102E-01	 3.789E+01	 1.247E+01	 4.332E+00	-3.168E+00	 1.037E+00	 4.273E+00	 3.711E+01	-2.996E-01	-3.032E-01
  13.240	 3.539E+02	 1.102E+00	 1.802E-01	-3.065E-02	 4.984E+01	 3.352E+00	 2.972E+01	 3.224E+00	 3.231E-02	 9.912E-02	 1.624E-02	-7.779E-03	 3.646E-02	-8.920E-02	 3.700E+01	 1.463E+01	 4.423E+00	-2.654E+00	 1.250E+00	 4.257E+00	 3.679E+01	-7.975E-01	-8.012E-01
  13.260	 3.922E-01	 1.081E+00	 1.782E-01	-2.836E-02	 5.685E+01	-6.973E-01	 3.091E+01	 3.592E+00	 3.264E-02	 9.894E-02	 1.577E-02	-1.104E-02	-5.585E-02	-2.258E-01	 3.485E+01	 1.712E+01	 4.096E+00	-2.146E+00	 1.444E+00	 4.239E+00	 3.600E+01	-1.838E+00	-1.841E+00
  13.280	 6.909E+00	 1.054E+00	 1.733E-01	-2.612E-02	 6.641E+01	-4.282E+00	 2.969E+01	 3.322E+00	 3.294E-02	 9.870E-02	 1.482E-02	-1.055E-02	-6.236E-02	 2.591E-01	 3.468E+01	 1.937E+01	 4.169E+00	-1.610E+00	 1.696E+00	 4.116E+00	 3.475E+01	-2.687E+00	-2.691E+00
  13.300	 1.342E+01	 1.004E+00	 1.662E-01	-2.524E-02	 7.093E+01	-2.682E+00	 2.812E+01	 2.755E+00	 3.322E-02	 9.856E-02	 1.244E-02	-2.659E-03	-1.699E-01	 5.004E-01	 3.572E+01	 2.017E+01	 4.614E+00	-1.317E+00	 1.671E+00	 3.805E+00	 3.475E+01	-2.295E+00	-2.298E+00
  13.320	 1.994E+01	 9.357E-01	 1.606E-01	-2.510E-02	 7.243E+01	-1.917E-02	 2.756E+01	 2.290E+00	 3.343E-02	 9.860E-02	 8.507E-03	 6.515E-03	-2.083E-01	 3.428E-01	 3.638E+01	 2.108E+01	 4.925E+00	-1.144E+00	 1.669E+00	 3.725E+00	 3.584E+01	-1.795E+00	-1.797E+00
  13.340	 2.645E+01	 8.560E-01	 1.584E-01	-2.477E-02	 7.160E+01	 1.557E+00	 2.851E+01	 2.180E+00	 3.356E-02	 9.877E-02	 4.565E-03	 8.766E-03	-1.785E-01	-1.394E-01	 3.588E+01	 2.286E+01	 4.897E+00	-8.693E-01	 1.820E+00	 3.965E+00	 3.689E+01	-2.060E+00	-2.061E+00
  13.360	 3.296E+01	 7.645E-01	 1.593E-01	-2.383E-02	 6.770E+01	 1.659E+00	 2.983E+01	 2.370E+00	 3.362E-02	 9.889E-02	 1.492E-03	 1.824E-03	-1.285E-01	-4.918E-01	 3.503E+01	 2.521E+01	 4.752E+00	-4.447E-01	 2.050E+00	 4.289E+00	 3.711E+01	-3.162E+00	-3.162E+00
  13.380	 3.948E+01	 6.630E-01	 1.617E-01	-2.247E-02	 6.427E+01	 5.477E-01	 3.039E+01	 2.617E+00	 3.362E-02	 9.883E-02	-7.122E-04	-7.505E-03	-9.913E-02	-3.525E-01	 3.477E+01	 2.773E+01	 4.681E+00	 7.365E-02	 2.304E+00	 4.484E+00	 3.657E+01	-4.623E+00	-4.623E+00
  13.400	 4.599E+01	 5.540E-01	 1.647E-01	-2.129E-02	 6.369E+01	-6.916E-01	 2.996E+01	 2.709E+00	 3.359E-02	 9.864E-02	-2.850E-03	-9.655E-03	-1.242E-01	 1.668E-01	 3.538E+01	 2.992E+01	 4.754E+00	 5.548E-01	 2.521E+00	 4.493E+00	 3.591E+01	-5.782E+00	-5.781E+00
  13.420	 5.251E+01	 4.385E-01	 1.676E-01	-2.079E-02	 6.465E+01	-8.709E-01	 2.909E+01	 2.581E+00	 3.350E-02	 9.852E-02	-5.930E-03	-1.402E-03	-1.853E-01	 6.048E-01	 3.643E+01	 3.137E+01	 4.919E+00	 8.814E-01	 2.636E+00	 4.403E+00	 3.576E+01	-6.279E+00	-6.277E+00
  13.440	 5.902E+01	 3.173E-01	 1.705E-01	-2.102E-02	 6.520E+01	 1.525E-01	 2.860E+01	 2.320E+00	 3.334E-02	 9.862E-02	-1.008E-02	 1.147E-02	-2.195E-01	 5.983E-01	 3.728E+01	 3.205E+01	 5.050E+00	 1.039E+00	 2.644E+00	 4.350E+00	 3.620E+01	-6.224E+00	-6.221E+00
  13.460	 6.554E+01	 1.916E-01	 1.735E-01	-2.159E-02	 6.460E+01	 1.549E+00	 2.877E+01	 2.078E+00	 3.310E-02	 9.894E-02	-1.416E-02	 1.976E-02	-1.738E-01	 1.880E-01	 3.765E+01	 3.232E+01	 5.078E+00	 1.107E+00	 2.597E+00	 4.396E+00	 3.681E+01	-5.998E+00	-5.995E+00
  13.480	 7.205E+01	 6.255E-02	 1.762E-01	-2.197E-02	 6.339E+01	 2.348E+00	 2.927E+01	 1.965E+00	 3.279E-02	 9.934E-02	-1.649E-02	 1.875E-02	-4.963E-02	-2.594E-01	 3.773E+01	 3.260E+01	 5.045E+00	 1.184E+00	 2.564E+00	 4.493E+00	 3.715E+01	-5.899E+00	-5.895E+00
  13.500	 7.857E+01	-6.836E-02	 1.779E-01	-2.189E-02	 6.263E+01	 2.121E+00	 2.963E+01	 2.009E+00	 3.246E-02	 9.965E-02	-1.603E-02	 1.157E-02	 9.128E-02	-3.911E-01	 3.789E+01	 3.318E+01	 5.024E+00	 1.314E+00	 2.591E+00	 4.557E+00	 3.711E+01	-5.929E+00	-5.926E+00
  13.520	 8.508E+01	-1.992E-01	 1.783E-01	-2.144E-02	 6.288E+01	 1.174E+00	 2.965E+01	 2.156E+00	 3.216E-02	 9.981E-02	-1.326E-02	 5.671E-03	 1.704E-01	-1.509E-01	 3.826E+01	 3.398E+01	 5.040E+00	 1.466E+00	 2.678E+00	 4.555E+00	 3.692E+01	-5.863E+00	-5.860E+00
  13.540	 9.160E+01	-3.276E-01	 1.778E-01	-2.095E-02	 6.374E+01	 2.189E-01	 2.952E+01	 2.324E+00	 3.193E-02	 9.992E-02	-9.849E-03	 6.385E-03	 1.573E-01	 2.160E-01	 3.872E+01	 3.467E+01	 5.067E+00	 1.568E+00	 2.772E+00	 4.514E+00	 3.688E+01	-5.510E+00	-5.507E+00
  13.560	 9.811E+01	-4.512E-01	 1.769E-01	-2.076E-02	 6.445E+01	-1.803E-01	 2.951E+01	 2.441E+00	 3.176E-02	 1.001E-01	-7.318E-03	 1.305E-02	 9.319E-02	 4.014E-01	 3.906E+01	 3.486E+01	 5.066E+00	 1.565E+00	 2.805E+00	 4.479E+00	 3.709E+01	-4.866E+00	-4.863E+00
  13.580	 1.046E+02	-5.679E-01	 1.758E-01	-2.095E-02	 6.470E+01	 2.113E-02	 2.970E+01	 2.486E+00	 3.163E-02	 1.004E-01	-5.953E-03	 2.037E-02	 5.303E-02	 2.839E-01	 3.921E+01	 3.438E+01	 5.020E+00	 1.449E+00	 2.746E+00	 4.468E+00	 3.741E+01	-4.072E+00	-4.070E+00
  13.600	 1.111E+02	-6.758E-01	 1.750E-01	-2.141E-02	 6.464E+01	 4.399E-01	 2.995E+01	 2.488E+00	 3.153E-02	 1.009E-01	-4.708E-03	 2.321E-02	 8.384E-02	-9.955E-03	 3.925E+01	 3.338E+01	 4.950E+00	 1.259E+00	 2.618E+00	 4.458E+00	 3.763E+01	-3.278E+00	-3.276E+00
  13.620	 1.177E+02	-7.735E-01	 1.744E-01	-2.194E-02	 6.454E+01	 6.219E-01	 3.003E+01	 2.506E+00	 3.145E-02	 1.013E-01	-2.239E-03	 2.037E-02	 1.670E-01	-2.472E-01	 3.934E+01	 3.218E+01	 4.884E+00	 1.045E+00	 2.479E+00	 4.419E+00	 3.766E+01	-2.525E+00	-2.523E+00
  13.640	 1.242E+02	-8.601E-01	 1.739E-01	-2.239E-02	 6.454E+01	 3.806E-01	 2.991E+01	 2.583E+00	 3.145E-02	 1.017E-01	 1.899E-03	 1.472E-02	 2.394E-01	-2.810E-01	 3.953E+01	 3.104E+01	 4.830E+00	 8.273E-01	 2.371E+00	 4.348E+00	 3.757E+01	-1.768E+00	-1.768E+00
  13.660	 1.307E+02	-9.347E-01	 1.735E-01	-2.279E-02	 6.451E+01	-1.476E-01	 2.970E+01	 2.713E+00	 3.154E-02	 1.019E-01	 6.943E-03	 1.037E-02	 2.524E-01	-1.355E-01	 3.978E+01	 2.995E+01	 4.791E+00	 5.872E-01	 2.297E+00	 4.270E+00	 3.751E+01	-1.015E+00	-1.016E+00
  13.680	 1.372E+02	-9.970E-01	 1.731E-01	-2.324E-02	 6.439E+01	-6.536E-01	 2.956E+01	 2.864E+00	 3.172E-02	 1.021E-01	 1.154E-02	 9.486E-03	 1.987E-01	 3.877E-02	 4.001E+01	 2.874E+01	 4.747E+00	 3.078E-01	 2.223E+00	 4.218E+00	 3.753E+01	-3.326E-01	-3.340E-01
  13.700	 1.437E+02	-1.046E+00	 1.727E-01	-2.384E-02	 6.427E+01	-9.450E-01	 2.957E+01	 2.992E+00	 3.199E-02	 1.023E-01	 1.471E-02	 1.122E-02	 1.185E-01	 1.148E-01	 4.020E+01	 2.724E+01	 4.699E+00	-2.841E-02	 2.114E+00	 4.208E+00	 3.760E+01	 1.731E-01	 1.710E-01
  13.720	 1.502E+02	-1.081E+00	 1.721E-01	-2.462E-02	 6.431E+01	-1.009E+00	 2.957E+01	 3.068E+00	 3.230E-02	 1.026E-01	 1.635E-02	 1.282E-02	 5.285E-02	 2.942E-02	 4.034E+01	 2.534E+01	 4.633E+00	-4.207E-01	 1.956E+00	 4.228E+00	 3.762E+01	 3.955E-01	 3.928E-01
  13.740	 1.568E+02	-1.103E+00	 1.714E-01	-2.552E-02	 6.446E+01	-1.000E+00	 2.952E+01	 3.122E+00	 3.264E-02	 1.028E-01	 1.709E-02	 1.208E-02	 2.350E-02	-1.185E-01	 4.050E+01	 2.319E+01	 4.574E+00	-8.489E-01	 1.766E+00	 4.256E+00	 3.756E+01	 3.755E-01	 3.724E-01
  13.760	 1.633E+02	-1.110E+00	 1.706E-01	-2.645E-02	 6.468E+01	-1.023E+00	 2.898E+01	 3.166E+00	 3.298E-02	 1.030E-01	 1.740E-02	 8.030E-03	 1.217E-02	-2.748E-01	 4.047E+01	 2.085E+01	 4.470E+00	-1.296E+00	 1.584E+00	 4.271E+00	 3.735E+01	 7.701E-02	 7.357E-02
  13.780	 1.698E+02	-1.105E+00	 1.694E-01	-2.733E-02	 6.441E+01	-9.060E-01	 2.484E+01	 3.210E+00	 3.333E-02	 1.031E-01	 1.759E-02	 1.379E-03	 1.430E-02	-3.287E-01	 4.005E+01	 1.830E+01	 4.329E+00	-1.751E+00	 1.539E+00	 4.415E+00	 3.690E+01	-5.690E-01	-5.727E-01
  13.800	 1.763E+02	-1.089E+00	 1.677E-01	-2.806E-02	 6.484E+01	-1.207E+00	 2.624E+01	 3.745E+00	 3.368E-02	 1.031E-01	 1.742E-02	-4.040E-03	-6.285E-02	-2.791E-01	 3.861E+01	 1.600E+01	 4.000E+00	-2.204E+00	 1.429E+00	 4.844E+00	 3.671E+01	-9.705E-01	-9.743E-01
  13.820	 1.828E+02	-1.068E+00	 1.639E-01	-2.869E-02	 6.253E+01	-5.893E-01	 3.515E+01	 3.384E+00	 3.401E-02	 1.030E-01	 1.553E-02	-1.086E-02	-9.143E-02	-2.067E-01	 3.744E+01	 1.205E+01	 3.870E+00	-2.741E+00	 7.389E-01	 4.806E+00	 3.544E+01	-2.342E+00	-2.345E+00
  13.840	 1.894E+02	-1.033E+00	 1.599E-01	-2.921E-02	 6.486E+01	-1.275E+00	 3.099E+01	 3.059E+00	 3.430E-02	 1.027E-01	 1.338E-02	-9.930E-03	-1.553E-01	 2.106E-01	 3.873E+01	 9.634E+00	 4.115E+00	-3.119E+00	 4.692E-01	 4.250E+00	 3.452E+01	-2.689E+00	-2.692E+00
  13.860	 1.959E+02	-9.752E-01	 1.586E-01	-2.959E-02	 6.992E+01	-3.098E+00	 2.917E+01	 3.317E+00	 3.453E-02	 1.026E-01	 9.315E-03	-3.659E-03	-2.407E-01	 3.427E-01	 3.988E+01	 9.504E+00	 4.222E+00	-3.384E+00	 6.098E-01	 3.770E+00	 3.511E+01	-2.082E+00	-2.085E+00
  13.880	 2.024E+02	-9.032E-01	 1.600E-01	-3.022E-02	 6.943E+01	-3.768E+00	 2.831E+01	 3.753E+00	 3.467E-02	 1.026E-01	 4.324E-03	 7.649E-04	-2.460E-01	 3.421E-02	 4.020E+01	 9.342E+00	 4.213E+00	-3.707E+00	 7.489E-01	 3.533E+00	 3.631E+01	-1.807E+00	-1.809E+00
  13.900	 2.089E+02	-8.196E-01	 1.638E-01	-3.129E-02	 6.521E+01	-3.410E+00	 2.884E+01	 4.021E+00	 3.471E-02	 1.026E-01	-1.761E-04	-3.523E-03	-2.003E-01	-4.511E-01	 3.966E+01	 7.995E+00	 4.012E+00	-4.126E+00	 6.862E-01	 3.613E+00	 3.711E+01	-2.409E+00	-2.410E+00
  13.920	 2.154E+02	-7.246E-01	 1.684E-01	-3.273E-02	 6.205E+01	-2.769E+00	 2.981E+01	 3.983E+00	 3.467E-02	 1.024E-01	-3.644E-03	-1.514E-02	-1.488E-01	-6.272E-01	 3.905E+01	 5.424E+00	 3.767E+00	-4.593E+00	 4.140E-01	 3.870E+00	 3.700E+01	-3.720E+00	-3.720E+00
  13.940	 2.219E+02	-6.206E-01	 1.720E-01	-3.427E-02	 6.144E+01	-2.170E+00	 3.016E+01	 3.738E+00	 3.457E-02	 1.020E-01	-6.380E-03	-2.508E-02	-1.341E-01	-2.914E-01	 3.919E+01	 2.363E+00	 3.710E+00	-5.048E+00	 4.478E-02	 4.078E+00	 3.633E+01	-5.133E+00	-5.133E+00
  13.960	 2.284E+02	-5.097E-01	 1.742E-01	-3.560E-02	 6.302E+01	-1.959E+00	 2.969E+01	 3.535E+00	 3.441E-02	 1.014E-01	-9.389E-03	-2.525E-02	-1.743E-01	 2.710E-01	 4.011E+01	-3.010E-02	 3.848E+00	-5.423E+00	-2.274E-01	 4.162E+00	 3.581E+01	-6.054E+00	-6.053E+00
  13.980	 2.350E+02	-3.924E-01	 1.754E-01	-3.649E-02	 6.504E+01	-2.322E+00	 2.901E+01	 3.575E+00	 3.419E-02	 1.010E-01	-1.346E-02	-1.599E-02	-2.294E-01	 5.805E-01	 4.119E+01	-1.075E+00	 4.033E+00	-5.681E+00	-2.873E-01	 4.197E+00	 3.591E+01	-6.304E+00	-6.302E+00
  14.000	 2.415E+02	-2.698E-01	 1.767E-01	-3.693E-02	 6.568E+01	-3.055E+00	 2.875E+01	 3.850E+00	 3.387E-02	 1.008E-01	-1.821E-02	-5.338E-03	-2.329E-01	 4.090E-01	 4.185E+01	-1.049E+00	 4.141E+00	-5.843E+00	-1.873E-01	 4.272E+00	 3.647E+01	-6.132E+00	-6.129E+00
  14.020	 2.480E+02	-1.430E-01	 1.783E-01	-3.713E-02	 6.481E+01	-3.777E+00	 2.898E+01	 4.168E+00	 3.346E-02	 1.008E-01	-2.217E-02	-1.602E-03	-1.486E-01	-5.047E-02	 4.200E+01	-7.989E-01	 4.153E+00	-5.960E+00	-7.327E-02	 4.402E+00	 3.703E+01	-5.929E+00	-5.926E+00
  14.040	 2.545E+02	-1.328E-02	 1.801E-01	-3.736E-02	 6.375E+01	-4.142E+00	 2.933E+01	 4.320E+00	 3.300E-02	 1.007E-01	-2.374E-02	-6.525E-03	-2.881E-03	-3.906E-01	 4.194E+01	-1.025E+00	 4.130E+00	-6.079E+00	-6.233E-02	 4.529E+00	 3.722E+01	-5.894E+00	-5.890E+00
  14.060	 2.610E+02	 1.178E-01	 1.816E-01	-3.779E-02	 6.362E+01	-3.974E+00	 2.940E+01	 4.230E+00	 3.253E-02	 1.005E-01	-2.239E-02	-1.463E-02	 1.285E-01	-3.521E-01	 4.197E+01	-1.848E+00	 4.136E+00	-6.213E+00	-1.712E-01	 4.589E+00	 3.709E+01	-5.920E+00	-5.917E+00
  14.080	 2.675E+02	 2.480E-01	 1.826E-01	-3.835E-02	 6.434E+01	-3.399E+00	 2.917E+01	 3.997E+00	 3.212E-02	 1.001E-01	-1.916E-02	-1.850E-02	 1.781E-01	-6.800E-03	 4.211E+01	-2.820E+00	 4.190E+00	-6.339E+00	-3.234E-01	 4.570E+00	 3.692E+01	-5.764E+00	-5.760E+00
  14.100	 2.740E+02	 3.751E-01	 1.831E-01	-3.880E-02	 6.514E+01	-2.794E+00	 2.888E+01	 3.790E+00	 3.177E-02	 9.979E-02	-1.584E-02	-1.488E-02	 1.434E-01	 3.424E-01	 4.218E+01	-3.326E+00	 4.256E+00	-6.410E+00	-4.132E-01	 4.510E+00	 3.697E+01	-5.295E+00	-5.292E+00
  14.120	 2.806E+02	 4.967E-01	 1.832E-01	-3.891E-02	 6.543E+01	-2.523E+00	 2.876E+01	 3.717E+00	 3.148E-02	 9.957E-02	-1.359E-02	-6.624E-03	 8.442E-02	 4.297E-01	 4.201E+01	-3.035E+00	 4.293E+00	-6.388E+00	-3.864E-01	 4.455E+00	 3.725E+01	-4.579E+00	-4.576E+00
  14.140	 2.871E+02	 6.107E-01	 1.829E-01	-3.860E-02	 6.519E+01	-2.671E+00	 2.881E+01	 3.762E+00	 3.122E-02	 9.952E-02	-1.213E-02	 3.874E-04	 7.363E-02	 2.362E-01	 4.163E+01	-2.073E+00	 4.306E+00	-6.271E+00	-2.671E-01	 4.422E+00	 3.755E+01	-3.777E+00	-3.775E+00
  14.160	 2.936E+02	 7.153E-01	 1.822E-01	-3.798E-02	 6.499E+01	-3.006E+00	 2.893E+01	 3.817E+00	 3.099E-02	 9.955E-02	-1.015E-02	 2.208E-03	 1.345E-01	-4.882E-02	 4.120E+01	-8.380E-01	 4.323E+00	-6.086E+00	-1.218E-01	 4.404E+00	 3.770E+01	-3.004E+00	-3.003E+00
  14.180	 3.001E+02	 8.094E-01	 1.810E-01	-3.727E-02	 6.528E+01	-3.162E+00	 2.899E+01	 3.785E+00	 3.082E-02	 9.957E-02	-6.537E-03	-6.641E-04	 2.261E-01	-2.041E-01	 4.084E+01	 3.235E-01	 4.364E+00	-5.868E+00	-4.059E-03	 4.388E+00	 3.767E+01	-2.258E+00	-2.257E+00
  14.200	 3.066E+02	 8.921E-01	 1.796E-01	-3.662E-02	 6.592E+01	-2.927E+00	 2.903E+01	 3.653E+00	 3.074E-02	 9.952E-02	-1.338E-03	-4.493E-03	 2.842E-01	-1.451E-01	 4.058E+01	 1.351E+00	 4.430E+00	-5.636E+00	 7.264E-02	 4.372E+00	 3.758E+01	-1.499E+00	-1.499E+00
  14.220	 3.131E+02	 9.626E-01	 1.783E-01	-3.604E-02	 6.648E+01	-2.427E+00	 2.907E+01	 3.487E+00	 3.077E-02	 9.941E-02	 4.356E-03	-5.599E-03	 2.731E-01	 4.242E-02	 4.033E+01	 2.427E+00	 4.494E+00	-5.382E+00	 1.395E-01	 4.361E+00	 3.754E+01	-7.597E-01	-7.606E-01
  14.240	 3.197E+02	 1.020E+00	 1.774E-01	-3.544E-02	 6.658E+01	-1.889E+00	 2.914E+01	 3.350E+00	 3.091E-02	 9.932E-02	 9.201E-03	-3.018E-03	 2.055E-01	 1.989E-01	 4.002E+01	 3.771E+00	 4.538E+00	-5.085E+00	 2.387E-01	 4.354E+00	 3.758E+01	-1.291E-01	-1.308E-01
  14.260	 3.262E+02	 1.065E+00	 1.771E-01	-3.471E-02	 6.616E+01	-1.528E+00	 2.921E+01	 3.280E+00	 3.113E-02	 9.931E-02	 1.252E-02	 1.480E-03	 1.273E-01	 2.176E-01	 3.964E+01	 5.485E+00	 4.557E+00	-4.730E+00	 3.867E-01	 4.342E+00	 3.764E+01	 2.851E-01	 2.828E-01
  14.280	 3.327E+02	 1.095E+00	 1.772E-01	-3.382E-02	 6.563E+01	-1.408E+00	 2.922E+01	 3.248E+00	 3.140E-02	 9.937E-02	 1.452E-02	 4.853E-03	 7.964E-02	 1.091E-01	 3.923E+01	 7.516E+00	 4.546E+00	-4.312E+00	 5.806E-01	 4.323E+00	 3.763E+01	 4.066E-01	 4.038E-01
  14.300	 3.392E+02	 1.112E+00	 1.776E-01	-3.285E-02	 6.521E+01	-1.348E+00	 2.923E+01	 3.237E+00	 3.171E-02	 9.948E-02	 1.588E-02	 5.531E-03	 5.689E-02	-5.534E-02	 3.879E+01	 9.668E+00	 4.495E+00	-3.844E+00	 7.826E-01	 4.295E+00	 3.750E+01	 2.951E-01	 2.919E-01
  14.320	 3.457E+02	 1.114E+00	 1.782E-01	-3.190E-02	 6.601E+01	-1.086E+00	 2.940E+01	 3.258E+00	 3.204E-02	 9.957E-02	 1.696E-02	 3.106E-03	 4.967E-02	-1.898E-01	 3.814E+01	 1.189E+01	 4.392E+00	-3.317E+00	 9.842E-01	 4.273E+00	 3.720E+01	-1.183E-01	-1.218E-01
  14.340	 3.522E+02	 1.105E+00	 1.798E-01	-3.097E-02	 5.794E+01	 1.944E+00	 2.961E+01	 3.227E+00	 3.239E-02	 9.959E-02	 1.798E-02	-8.733E-04	 4.782E-02	-1.433E-01	 3.729E+01	 1.412E+01	 4.375E+00	-2.759E+00	 1.206E+00	 4.263E+00	 3.681E+01	-7.302E-01	-7.338E-01
  14.360	 3.588E+02	 1.086E+00	 1.790E-01	-2.903E-02	 5.103E+01	 1.389E+00	 3.076E+01	 3.549E+00	 3.275E-02	 9.955E-02	 1.787E-02	-3.879E-03	-6.117E-02	-2.566E-01	 3.536E+01	 1.640E+01	 4.223E+00	-2.310E+00	 1.360E+00	 4.236E+00	 3.640E+01	-1.429E+00	-1.433E+00
  14.380	 5.280E+00	 1.062E+00	 1.749E-01	-2.656E-02	 6.352E+01	-4.001E+00	 2.995E+01	 3.383E+00	 3.309E-02	 9.943E-02	 1.673E-02	-6.194E-03	-5.224E-02	 1.509E-01	 3.467E+01	 1.897E+01	 4.122E+00	-1.734E+00	 1.674E+00	 4.178E+00	 3.500E+01	-2.580E+00	-2.584E+00
  14.400	 1.179E+01	 1.017E+00	 1.680E-01	-2.534E-02	 7.018E+01	-3.311E+00	 2.848E+01	 2.901E+00	 3.341E-02	 9.936E-02	 1.468E-02	-2.234E-04	-1.579E-01	 4.321E-01	 3.544E+01	 2.002E+01	 4.496E+00	-1.362E+00	 1.689E+00	 3.874E+00	 3.459E+01	-2.471E+00	-2.474E+00
  14.420	 1.831E+01	 9.530E-01	 1.617E-01	-2.511E-02	 7.212E+01	-6.267E-01	 2.753E+01	 2.382E+00	 3.367E-02	 9.945E-02	 1.077E-02	 8.743E-03	-2.185E-01	 3.865E-01	 3.636E+01	 2.078E+01	 4.890E+00	-1.190E+00	 1.654E+00	 3.710E+00	 3.553E+01	-1.880E+00	-1.882E+00
  14.440	 2.482E+01	 8.764E-01	 1.586E-01	-2.490E-02	 7.217E+01	 1.287E+00	 2.817E+01	 2.172E+00	 3.384E-02	 9.967E-02	 6.465E-03	 1.253E-02	-2.023E-01	-5.016E-02	 3.611E+01	 2.235E+01	 4.933E+00	-9.505E-01	 1.772E+00	 3.887E+00	 3.668E+01	-1.917E+00	-1.919E+00
  14.460	 3.134E+01	 7.879E-01	 1.589E-01	-2.412E-02	 6.880E+01	 1.762E+00	 2.952E+01	 2.308E+00	 3.393E-02	 9.988E-02	 2.887E-03	 6.768E-03	-1.538E-01	-4.817E-01	 3.524E+01	 2.460E+01	 4.795E+00	-5.621E-01	 1.988E+00	 4.214E+00	 3.714E+01	-2.835E+00	-2.835E+00
  14.480	 3.785E+01	 6.888E-01	 1.611E-01	-2.283E-02	 6.489E+01	 8.881E-01	 3.033E+01	 2.563E+00	 3.396E-02	 9.991E-02	 2.549E-04	-3.710E-03	-1.149E-01	-4.754E-01	 3.479E+01	 2.711E+01	 4.695E+00	-5.733E-02	 2.241E+00	 4.453E+00	 3.674E+01	-4.268E+00	-4.268E+00
  14.500	 4.437E+01	 5.817E-01	 1.640E-01	-2.154E-02	 6.360E+01	-4.493E-01	 3.012E+01	 2.707E+00	 3.395E-02	 9.977E-02	-2.046E-03	-9.113E-03	-1.252E-01	-1.530E-02	 3.520E+01	 2.943E+01	 4.733E+00	 4.464E-01	 2.474E+00	 4.506E+00	 3.604E+01	-5.552E+00	-5.551E+00
  14.520	 5.088E+01	 4.680E-01	 1.670E-01	-2.085E-02	 6.437E+01	-9.570E-01	 2.928E+01	 2.631E+00	 3.388E-02	 9.962E-02	-5.078E-03	-4.036E-03	-1.822E-01	 4.876E-01	 3.621E+01	 3.109E+01	 4.886E+00	 8.178E-01	 2.618E+00	 4.429E+00	 3.574E+01	-6.221E+00	-6.219E+00
  14.540	 5.739E+01	 3.483E-01	 1.699E-01	-2.093E-02	 6.516E+01	-1.848E-01	 2.864E+01	 2.389E+00	 3.373E-02	 9.965E-02	-9.271E-03	 7.735E-03	-2.296E-01	 6.056E-01	 3.717E+01	 3.194E+01	 5.037E+00	 1.013E+00	 2.650E+00	 4.357E+00	 3.605E+01	-6.273E+00	-6.270E+00
  14.560	 6.391E+01	 2.238E-01	 1.730E-01	-2.146E-02	 6.483E+01	 1.216E+00	 2.865E+01	 2.129E+00	 3.350E-02	 9.991E-02	-1.378E-02	 1.707E-02	-2.065E-01	 2.704E-01	 3.766E+01	 3.228E+01	 5.092E+00	 1.094E+00	 2.611E+00	 4.380E+00	 3.667E+01	-6.052E+00	-6.049E+00
  14.580	 7.042E+01	 9.559E-02	 1.758E-01	-2.193E-02	 6.368E+01	 2.233E+00	 2.912E+01	 1.979E+00	 3.319E-02	 1.003E-01	-1.694E-02	 1.760E-02	-9.787E-02	-2.057E-01	 3.778E+01	 3.252E+01	 5.067E+00	 1.162E+00	 2.569E+00	 4.474E+00	 3.711E+01	-5.907E+00	-5.903E+00
  14.600	 7.694E+01	-3.488E-02	 1.778E-01	-2.197E-02	 6.271E+01	 2.262E+00	 2.954E+01	 1.984E+00	 3.284E-02	 1.006E-01	-1.744E-02	 1.058E-02	 4.760E-02	-4.308E-01	 3.790E+01	 3.301E+01	 5.041E+00	 1.277E+00	 2.579E+00	 4.553E+00	 3.716E+01	-5.918E+00	-5.914E+00
  14.620	 8.345E+01	-1.658E-01	 1.785E-01	-2.159E-02	 6.271E+01	 1.438E+00	 2.965E+01	 2.113E+00	 3.251E-02	 1.007E-01	-1.534E-02	 3.016E-03	 1.495E-01	-2.666E-01	 3.822E+01	 3.378E+01	 5.049E+00	 1.429E+00	 2.653E+00	 4.568E+00	 3.698E+01	-5.900E+00	-5.896E+00
  14.640	 8.997E+01	-2.950E-01	 1.783E-01	-2.108E-02	 6.349E+01	 4.187E-01	 2.953E+01	 2.283E+00	 3.224E-02	 1.007E-01	-1.210E-02	 1.291E-03	 1.595E-01	 1.023E-01	 3.868E+01	 3.453E+01	 5.074E+00	 1.551E+00	 2.752E+00	 4.532E+00	 3.688E+01	-5.626E+00	-5.623E+00
  14.660	 9.648E+01	-4.200E-01	 1.773E-01	-2.080E-02	 6.431E+01	-1.478E-01	 2.948E+01	 2.417E+00	 3.202E-02	 1.008E-01	-9.414E-03	 6.335E-03	 1.031E-01	 3.596E-01	 3.906E+01	 3.488E+01	 5.084E+00	 1.576E+00	 2.805E+00	 4.493E+00	 3.703E+01	-5.046E+00	-5.043E+00
  14.680	 1.030E+02	-5.387E-01	 1.763E-01	-2.089E-02	 6.466E+01	-7.022E-02	 2.963E+01	 2.479E+00	 3.185E-02	 1.010E-01	-7.940E-03	 1.361E-02	 5.150E-02	 3.173E-01	 3.924E+01	 3.456E+01	 5.047E+00	 1.486E+00	 2.769E+00	 4.476E+00	 3.734E+01	-4.275E+00	-4.272E+00
  14.700	 1.095E+02	-6.490E-01	 1.754E-01	-2.131E-02	 6.465E+01	 3.381E-01	 2.989E+01	 2.487E+00	 3.170E-02	 1.013E-01	-6.909E-03	 1.749E-02	 6.441E-02	 5.008E-02	 3.929E+01	 3.367E+01	 4.978E+00	 1.310E+00	 2.654E+00	 4.468E+00	 3.760E+01	-3.472E+00	-3.469E+00
  14.720	 1.160E+02	-7.494E-01	 1.747E-01	-2.183E-02	 6.455E+01	 6.115E-01	 3.003E+01	 2.496E+00	 3.158E-02	 1.017E-01	-4.928E-03	 1.563E-02	 1.406E-01	-2.170E-01	 3.935E+01	 3.249E+01	 4.907E+00	 1.098E+00	 2.512E+00	 4.436E+00	 3.768E+01	-2.711E+00	-2.710E+00
  14.740	 1.225E+02	-8.389E-01	 1.741E-01	-2.231E-02	 6.453E+01	 4.747E-01	 2.995E+01	 2.556E+00	 3.152E-02	 1.019E-01	-1.240E-03	 1.007E-02	 2.236E-01	-3.010E-01	 3.951E+01	 3.132E+01	 4.849E+00	 8.814E-01	 2.394E+00	 4.371E+00	 3.761E+01	-1.961E+00	-1.961E+00
  14.760	 1.291E+02	-9.168E-01	 1.737E-01	-2.271E-02	 6.454E+01	-8.399E-03	 2.975E+01	 2.677E+00	 3.154E-02	 1.021E-01	 3.661E-03	 4.953E-03	 2.555E-01	-1.849E-01	 3.974E+01	 3.023E+01	 4.804E+00	 6.493E-01	 2.314E+00	 4.291E+00	 3.753E+01	-1.201E+00	-1.201E+00
  14.780	 1.356E+02	-9.823E-01	 1.733E-01	-2.313E-02	 6.443E+01	-5.417E-01	 2.959E+01	 2.826E+00	 3.166E-02	 1.021E-01	 8.500E-03	 3.154E-03	 2.181E-01	 2.707E-03	 3.997E+01	 2.907E+01	 4.760E+00	 3.823E-01	 2.244E+00	 4.229E+00	 3.753E+01	-4.925E-01	-4.937E-01
  14.800	 1.421E+02	-1.035E+00	 1.729E-01	-2.368E-02	 6.430E+01	-8.946E-01	 2.956E+01	 2.962E+00	 3.187E-02	 1.022E-01	 1.212E-02	 4.519E-03	 1.412E-01	 1.132E-01	 4.015E+01	 2.765E+01	 4.709E+00	 6.028E-02	 2.145E+00	 4.207E+00	 3.759E+01	 6.408E-02	 6.217E-02
  14.820	 1.486E+02	-1.074E+00	 1.723E-01	-2.442E-02	 6.432E+01	-1.015E+00	 2.957E+01	 3.051E+00	 3.214E-02	 1.023E-01	 1.418E-02	 6.625E-03	 6.937E-02	 6.907E-02	 4.029E+01	 2.585E+01	 4.644E+00	-3.189E-01	 2.000E+00	 4.221E+00	 3.763E+01	 3.644E-01	 3.619E-01
  14.840	 1.551E+02	-1.099E+00	 1.716E-01	-2.530E-02	 6.433E+01	-9.661E-01	 2.965E+01	 3.109E+00	 3.243E-02	 1.025E-01	 1.519E-02	 6.819E-03	 3.689E-02	-5.053E-02	 4.050E+01	 2.375E+01	 4.603E+00	-7.378E-01	 1.813E+00	 4.250E+00	 3.760E+01	 4.040E-01	 4.010E-01
  14.860	 1.617E+02	-1.110E+00	 1.708E-01	-2.622E-02	 6.463E+01	-9.932E-01	 2.928E+01	 3.148E+00	 3.274E-02	 1.026E-01	 1.570E-02	 3.945E-03	 1.969E-02	-2.194E-01	 4.052E+01	 2.146E+01	 4.504E+00	-1.180E+00	 1.625E+00	 4.269E+00	 3.742E+01	 1.852E-01	 1.819E-01
  14.880	 1.682E+02	-1.108E+00	 1.698E-01	-2.711E-02	 6.472E+01	-1.011E+00	 2.666E+01	 3.193E+00	 3.306E-02	 1.026E-01	 1.603E-02	-1.805E-03	 1.468E-02	-3.464E-01	 4.007E+01	 1.893E+01	 4.321E+00	-1.643E+00	 1.523E+00	 4.326E+00	 3.703E+01	-4.060E-01	-4.097E-01
  14.900	 1.747E+02	-1.095E+00	 1.681E-01	-2.789E-02	 6.446E+01	-1.010E+00	 2.248E+01	 3.574E+00	 3.338E-02	 1.025E-01	 1.628E-02	-7.280E-03	-1.667E-02	-2.080E-01	 3.925E+01	 1.663E+01	 4.163E+00	-2.080E+00	 1.527E+00	 4.710E+00	 3.677E+01	-8.406E-01	-8.444E-01
  14.920	 1.812E+02	-1.074E+00	 1.650E-01	-2.852E-02	 6.378E+01	-9.728E-01	 3.514E+01	 3.547E+00	 3.370E-02	 1.023E-01	 1.483E-02	-1.342E-02	-9.111E-02	-3.170E-01	 3.707E+01	 1.304E+01	 3.720E+00	-2.622E+00	 9.272E-01	 4.933E+00	 3.579E+01	-2.052E+00	-2.056E+00
  14.940	 1.877E+02	-1.045E+00	 1.606E-01	-2.909E-02	 6.342E+01	-9.064E-01	 3.145E+01	 3.105E+00	 3.398E-02	 1.020E-01	 1.311E-02	-1.415E-02	-1.135E-01	 1.778E-01	 3.844E+01	 9.963E+00	 4.096E+00	-3.049E+00	 4.786E-01	 4.385E+00	 3.464E+01	-2.720E+00	-2.724E+00
  14.960	 1.942E+02	-9.919E-01	 1.586E-01	-2.948E-02	 6.906E+01	-2.713E+00	 2.957E+01	 3.225E+00	 3.421E-02	 1.018E-01	 9.738E-03	-8.028E-03	-2.146E-01	 3.881E-01	 3.965E+01	 9.487E+00	 4.199E+00	-3.315E+00	 5.652E-01	 3.869E+00	 3.488E+01	-2.224E+00	-2.228E+00
  14.980	 2.008E+02	-9.228E-01	 1.595E-01	-3.002E-02	 7.009E+01	-3.733E+00	 2.841E+01	 3.656E+00	 3.436E-02	 1.017E-01	 5.051E-03	-1.646E-03	-2.396E-01	 1.776E-01	 4.019E+01	 9.488E+00	 4.224E+00	-3.616E+00	 7.327E-01	 3.567E+00	 3.603E+01	-1.792E+00	-1.794E+00
  15.000	 2.073E+02	-8.420E-01	 1.628E-01	-3.099E-02	 6.624E+01	-3.529E+00	 2.866E+01	 3.985E+00	 3.441E-02	 1.017E-01	 5.757E-04	-2.863E-03	-2.016E-01	-3.083E-01	 3.982E+01	 8.455E+00	 4.068E+00	-4.017E+00	 7.225E-01	 3.575E+00	 3.700E+01	-2.177E+00	-2.178E+00
  15.020	 2.138E+02	-7.496E-01	 1.673E-01	-3.235E-02	 6.258E+01	-2.927E+00	 2.962E+01	 4.022E+00	 3.439E-02	 1.015E-01	-2.920E-03	-1.261E-02	-1.487E-01	-5.946E-01	 3.913E+01	 6.144E+00	 3.810E+00	-4.475E+00	 4.958E-01	 3.809E+00	 3.710E+01	-3.356E+00	-3.357E+00
  15.040	 2.203E+02	-6.475E-01	 1.712E-01	-3.389E-02	 6.138E+01	-2.306E+00	 3.016E+01	 3.809E+00	 3.430E-02	 1.012E-01	-5.547E-03	-2.315E-02	-1.219E-01	-3.743E-01	 3.905E+01	 3.108E+00	 3.697E+00	-4.938E+00	 1.350E-01	 4.040E+00	 3.650E+01	-4.805E+00	-4.805E+00
  15.060	 2.268E+02	-5.380E-01	 1.736E-01	-3.529E-02	 6.255E+01	-1.973E+00	 2.985E+01	 3.573E+00	 3.417E-02	 1.006E-01	-8.176E-03	-2.531E-02	-1.500E-01	 1.752E-01	 3.983E+01	 4.628E-01	 3.799E+00	-5.338E+00	-1.761E-01	 4.148E+00	 3.589E+01	-5.881E+00	-5.880E+00
  15.080	 2.333E+02	-4.221E-01	 1.750E-01	-3.629E-02	 6.466E+01	-2.197E+00	 2.917E+01	 3.546E+00	 3.397E-02	 1.002E-01	-1.175E-02	-1.715E-02	-2.075E-01	 5.788E-01	 4.092E+01	-9.209E-01	 3.985E+00	-5.625E+00	-2.889E-01	 4.185E+00	 3.583E+01	-6.287E+00	-6.285E+00
  15.100	 2.398E+02	-3.006E-01	 1.762E-01	-3.682E-02	 6.570E+01	-2.868E+00	 2.878E+01	 3.776E+00	 3.369E-02	 9.999E-02	-1.623E-02	-5.353E-03	-2.295E-01	 5.192E-01	 4.169E+01	-1.096E+00	 4.114E+00	-5.807E+00	-2.169E-01	 4.245E+00	 3.632E+01	-6.187E+00	-6.184E+00
  15.120	 2.464E+02	-1.746E-01	 1.777E-01	-3.706E-02	 6.510E+01	-3.624E+00	 2.892E+01	 4.104E+00	 3.332E-02	 9.996E-02	-2.036E-02	 1.108E-03	-1.679E-01	 9.448E-02	 4.194E+01	-8.305E-01	 4.144E+00	-5.931E+00	-9.432E-02	 4.364E+00	 3.691E+01	-5.967E+00	-5.963E+00
  15.140	 2.529E+02	-4.535E-02	 1.795E-01	-3.726E-02	 6.397E+01	-4.099E+00	 2.928E+01	 4.308E+00	 3.289E-02	 9.997E-02	-2.245E-02	-1.421E-03	-3.279E-02	-3.096E-01	 4.190E+01	-9.130E-01	 4.122E+00	-6.047E+00	-5.362E-02	 4.497E+00	 3.720E+01	-5.893E+00	-5.889E+00
  15.160	 2.594E+02	 8.566E-02	 1.811E-01	-3.764E-02	 6.359E+01	-4.065E+00	 2.943E+01	 4.274E+00	 3.244E-02	 9.987E-02	-2.163E-02	-8.900E-03	 1.087E-01	-3.706E-01	 4.189E+01	-1.615E+00	 4.119E+00	-6.178E+00	-1.375E-01	 4.575E+00	 3.712E+01	-5.928E+00	-5.924E+00
  15.180	 2.659E+02	 2.164E-01	 1.822E-01	-3.818E-02	 6.416E+01	-3.562E+00	 2.925E+01	 4.061E+00	 3.204E-02	 9.963E-02	-1.857E-02	-1.383E-02	 1.805E-01	-8.232E-02	 4.202E+01	-2.606E+00	 4.165E+00	-6.310E+00	-2.884E-01	 4.572E+00	 3.694E+01	-5.835E+00	-5.831E+00
  15.200	 2.724E+02	 3.445E-01	 1.827E-01	-3.869E-02	 6.500E+01	-2.923E+00	 2.895E+01	 3.834E+00	 3.170E-02	 9.936E-02	-1.503E-02	-1.163E-02	 1.613E-01	 2.887E-01	 4.212E+01	-3.272E+00	 4.233E+00	-6.399E+00	-4.008E-01	 4.517E+00	 3.693E+01	-5.442E+00	-5.439E+00
  15.220	 2.789E+02	 4.676E-01	 1.830E-01	-3.890E-02	 6.543E+01	-2.550E+00	 2.877E+01	 3.725E+00	 3.143E-02	 9.920E-02	-1.241E-02	-3.759E-03	 1.002E-01	 4.468E-01	 4.202E+01	-3.181E+00	 4.279E+00	-6.402E+00	-4.028E-01	 4.460E+00	 3.716E+01	-4.775E+00	-4.772E+00
  15.240	 2.854E+02	 5.836E-01	 1.828E-01	-3.869E-02	 6.527E+01	-2.604E+00	 2.880E+01	 3.748E+00	 3.120E-02	 9.921E-02	-1.079E-02	 4.201E-03	 7.157E-02	 3.067E-01	 4.169E+01	-2.356E+00	 4.297E+00	-6.307E+00	-3.013E-01	 4.423E+00	 3.747E+01	-3.979E+00	-3.976E+00
  15.260	 2.920E+02	 6.907E-01	 1.823E-01	-3.813E-02	 6.500E+01	-2.923E+00	 2.891E+01	 3.810E+00	 3.100E-02	 9.934E-02	-9.047E-03	 7.515E-03	 1.150E-01	 2.013E-02	 4.126E+01	-1.155E+00	 4.311E+00	-6.135E+00	-1.572E-01	 4.404E+00	 3.767E+01	-3.193E+00	-3.191E+00
  15.280	 2.985E+02	 7.874E-01	 1.812E-01	-3.743E-02	 6.516E+01	-3.150E+00	 2.898E+01	 3.803E+00	 3.085E-02	 9.948E-02	-5.883E-03	 5.593E-03	 2.039E-01	-1.828E-01	 4.090E+01	 3.915E-02	 4.348E+00	-5.923E+00	-3.036E-02	 4.389E+00	 3.767E+01	-2.444E+00	-2.443E+00
  15.300	 3.050E+02	 8.728E-01	 1.799E-01	-3.677E-02	 6.575E+01	-3.016E+00	 2.900E+01	 3.693E+00	 3.078E-02	 9.955E-02	-1.027E-03	 1.628E-03	 2.731E-01	-1.785E-01	 4.062E+01	 1.084E+00	 4.409E+00	-5.696E+00	 5.544E-02	 4.373E+00	 3.758E+01	-1.684E+00	-1.684E+00
  15.320	 3.115E+02	 9.463E-01	 1.785E-01	-3.619E-02	 6.635E+01	-2.552E+00	 2.905E+01	 3.526E+00	 3.081E-02	 9.956E-02	 4.621E-03	-4.345E-04	 2.790E-01	-1.289E-02	 4.039E+01	 2.129E+00	 4.480E+00	-5.449E+00	 1.201E-01	 4.363E+00	 3.753E+01	-9.324E-01	-9.331E-01
  15.340	 3.180E+02	 1.007E+00	 1.776E-01	-3.560E-02	 6.658E+01	-2.004E+00	 2.912E+01	 3.378E+00	 3.096E-02	 9.956E-02	 9.697E-03	 1.138E-03	 2.208E-01	 1.584E-01	 4.010E+01	 3.394E+00	 4.530E+00	-5.165E+00	 2.089E-01	 4.357E+00	 3.756E+01	-2.657E-01	-2.672E-01
  15.360	 3.245E+02	 1.055E+00	 1.772E-01	-3.491E-02	 6.628E+01	-1.593E+00	 2.917E+01	 3.285E+00	 3.119E-02	 9.962E-02	 1.332E-02	 5.140E-03	 1.416E-01	 2.184E-01	 3.975E+01	 5.017E+00	 4.568E+00	-4.826E+00	 3.458E-01	 4.348E+00	 3.762E+01	 2.125E-01	 2.103E-01
  15.380	 3.311E+02	 1.089E+00	 1.772E-01	-3.406E-02	 6.573E+01	-1.418E+00	 2.922E+01	 3.254E+00	 3.148E-02	 9.976E-02	 1.546E-02	 8.650E-03	 8.156E-02	 1.223E-01	 3.934E+01	 6.986E+00	 4.553E+00	-4.420E+00	 5.296E-01	 4.332E+00	 3.763E+01	 3.994E-01	 3.967E-01
  15.400	 3.376E+02	 1.108E+00	 1.776E-01	-3.310E-02	 6.526E+01	-1.377E+00	 2.922E+01	 3.248E+00	 3.180E-02	 9.995E-02	 1.681E-02	 9.725E-03	 5.419E-02	-3.383E-02	 3.893E+01	 9.124E+00	 4.525E+00	-3.968E+00	 7.287E-01	 4.304E+00	 3.755E+01	 3.502E-01	 3.471E-01
  15.420	 3.441E+02	 1.114E+00	 1.781E-01	-3.214E-02	 6.546E+01	-1.215E+00	 2.931E+01	 3.244E+00	 3.215E-02	 1.001E-01	 1.777E-02	 7.541E-03	 4.379E-02	-1.781E-01	 3.838E+01	 1.132E+01	 4.438E+00	-3.459E+00	 9.324E-01	 4.280E+00	 3.731E+01	 2.553E-02	 2.211E-02
  15.440	 3.506E+02	 1.108E+00	 1.794E-01	-3.124E-02	 6.550E+01	 4.745E-01	 2.953E+01	 3.234E+00	 3.251E-02	 1.002E-01	 1.861E-02	 3.022E-03	 4.634E-02	-2.003E-01	 3.754E+01	 1.358E+01	 4.353E+00	-2.882E+00	 1.156E+00	 4.270E+00	 3.686E+01	-6.249E-01	-6.286E-01
  15.460	 3.571E+02	 1.090E+00	 1.799E-01	-2.968E-02	 4.519E+01	 3.188E+00	 3.036E+01	 3.394E+00	 3.289E-02	 1.003E-01	 1.885E-02	-1.520E-04	-5.028E-02	-2.175E-01	 3.603E+01	 1.572E+01	 4.359E+00	-2.451E+00	 1.313E+00	 4.240E+00	 3.665E+01	-1.073E+00	-1.077E+00
  15.480	 3.651E+00	 1.068E+00	 1.763E-01	-2.711E-02	 5.961E+01	-3.318E+00	 3.029E+01	 3.439E+00	 3.325E-02	 1.002E-01	 1.750E-02	-4.641E-03	-5.774E-02	-1.677E-02	 3.466E+01	 1.845E+01	 4.057E+00	-1.856E+00	 1.627E+00	 4.222E+00	 3.527E+01	-2.427E+00	-2.431E+00
  15.500	 1.017E+01	 1.030E+00	 1.700E-01	-2.555E-02	 6.922E+01	-3.811E+00	 2.888E+01	 3.045E+00	 3.359E-02	 1.001E-01	 1.574E-02	-8.286E-04	-1.414E-01	 3.398E-01	 3.517E+01	 1.986E+01	 4.367E+00	-1.418E+00	 1.702E+00	 3.956E+00	 3.450E+01	-2.625E+00	-2.629E+00
  15.520	 1.668E+01	 9.691E-01	 1.633E-01	-2.517E-02	 7.170E+01	-1.270E+00	 2.759E+01	 2.486E+00	 3.387E-02	 1.002E-01	 1.198E-02	 7.495E-03	-2.220E-01	 4.121E-01	 3.628E+01	 2.052E+01	 4.832E+00	-1.233E+00	 1.648E+00	 3.720E+00	 3.523E+01	-1.997E+00	-2.000E+00
  15.540	 2.319E+01	 8.952E-01	 1.594E-01	-2.504E-02	 7.238E+01	 9.538E-01	 2.785E+01	 2.183E+00	 3.406E-02	 1.004E-01	 7.440E-03	 1.269E-02	-2.210E-01	 4.849E-02	 3.633E+01	 2.188E+01	 4.960E+00	-1.024E+00	 1.729E+00	 3.821E+00	 3.643E+01	-1.825E+00	-1.827E+00
  15.560	 2.971E+01	 8.095E-01	 1.590E-01	-2.442E-02	 6.978E+01	 1.789E+00	 2.920E+01	 2.251E+00	 3.417E-02	 1.006E-01	 3.450E-03	 8.617E-03	-1.752E-01	-4.330E-01	 3.552E+01	 2.400E+01	 4.844E+00	-6.730E-01	 1.929E+00	 4.140E+00	 3.712E+01	-2.544E+00	-2.545E+00
  15.580	 3.622E+01	 7.127E-01	 1.608E-01	-2.321E-02	 6.564E+01	 1.197E+00	 3.020E+01	 2.501E+00	 3.421E-02	 1.007E-01	 4.343E-04	-2.162E-03	-1.297E-01	-5.576E-01	 3.490E+01	 2.649E+01	 4.722E+00	-1.886E-01	 2.178E+00	 4.418E+00	 3.690E+01	-3.910E+00	-3.910E+00
  15.600	 4.274E+01	 6.073E-01	 1.635E-01	-2.186E-02	 6.364E+01	-1.572E-01	 3.024E+01	 2.690E+00	 3.419E-02	 1.006E-01	-2.023E-03	-1.023E-02	-1.256E-01	-1.823E-01	 3.509E+01	 2.891E+01	 4.723E+00	 3.293E-01	 2.422E+00	 4.518E+00	 3.621E+01	-5.291E+00	-5.291E+00
  15.620	 4.925E+01	 4.951E-01	 1.664E-01	-2.097E-02	 6.412E+01	-9.663E-01	 2.949E+01	 2.670E+00	 3.413E-02	 1.004E-01	-4.957E-03	-8.313E-03	-1.744E-01	 3.596E-01	 3.600E+01	 3.076E+01	 4.855E+00	 7.426E-01	 2.594E+00	 4.461E+00	 3.576E+01	-6.131E+00	-6.130E+00
  15.640	 5.577E+01	 3.768E-01	 1.693E-01	-2.086E-02	 6.506E+01	-4.857E-01	 2.873E+01	 2.458E+00	 3.399E-02	 1.003E-01	-9.050E-03	 2.062E-03	-2.302E-01	 5.994E-01	 3.702E+01	 3.180E+01	 5.017E+00	 9.790E-01	 2.652E+00	 4.374E+00	 3.593E+01	-6.310E+00	-6.308E+00
  15.660	 6.228E+01	 2.534E-01	 1.723E-01	-2.133E-02	 6.503E+01	 8.585E-01	 2.858E+01	 2.188E+00	 3.376E-02	 1.005E-01	-1.377E-02	 1.238E-02	-2.276E-01	 3.616E-01	 3.763E+01	 3.222E+01	 5.096E+00	 1.079E+00	 2.624E+00	 4.370E+00	 3.652E+01	-6.115E+00	-6.112E+00
  15.680	 6.879E+01	 1.261E-01	 1.752E-01	-2.186E-02	 6.400E+01	 2.056E+00	 2.898E+01	 2.001E+00	 3.344E-02	 1.007E-01	-1.755E-02	 1.488E-02	-1.367E-01	-1.168E-01	 3.780E+01	 3.245E+01	 5.083E+00	 1.141E+00	 2.576E+00	 4.451E+00	 3.704E+01	-5.928E+00	-5.925E+00
  15.700	 7.531E+01	-3.834E-03	 1.774E-01	-2.202E-02	 6.289E+01	 2.349E+00	 2.945E+01	 1.967E+00	 3.307E-02	 1.010E-01	-1.886E-02	 8.864E-03	 8.303E-03	-4.284E-01	 3.787E+01	 3.286E+01	 5.048E+00	 1.243E+00	 2.569E+00	 4.539E+00	 3.718E+01	-5.909E+00	-5.905E+00
  15.720	 8.182E+01	-1.348E-01	 1.785E-01	-2.172E-02	 6.263E+01	 1.689E+00	 2.964E+01	 2.072E+00	 3.271E-02	 1.011E-01	-1.738E-02	 4.048E-04	 1.291E-01	-3.524E-01	 3.813E+01	 3.357E+01	 5.045E+00	 1.391E+00	 2.629E+00	 4.569E+00	 3.703E+01	-5.924E+00	-5.920E+00
  15.740	 8.834E+01	-2.646E-01	 1.784E-01	-2.121E-02	 6.328E+01	 6.476E-01	 2.956E+01	 2.240E+00	 3.239E-02	 1.010E-01	-1.430E-02	-3.353E-03	 1.632E-01	-1.811E-03	 3.857E+01	 3.437E+01	 5.068E+00	 1.527E+00	 2.729E+00	 4.541E+00	 3.688E+01	-5.728E+00	-5.724E+00
  15.760	 9.485E+01	-3.909E-01	 1.776E-01	-2.084E-02	 6.416E+01	-7.405E-02	 2.947E+01	 2.389E+00	 3.213E-02	 1.010E-01	-1.139E-02	 8.833E-05	 1.183E-01	 3.141E-01	 3.899E+01	 3.485E+01	 5.087E+00	 1.581E+00	 2.800E+00	 4.499E+00	 3.697E+01	-5.218E+00	-5.215E+00
  15.780	 1.014E+02	-5.113E-01	 1.765E-01	-2.083E-02	 6.463E+01	-1.421E-01	 2.957E+01	 2.470E+00	 3.193E-02	 1.011E-01	-9.665E-03	 7.277E-03	 5.890E-02	 3.520E-01	 3.922E+01	 3.471E+01	 5.060E+00	 1.518E+00	 2.787E+00	 4.477E+00	 3.726E+01	-4.479E+00	-4.476E+00
  15.800	 1.079E+02	-6.239E-01	 1.756E-01	-2.118E-02	 6.469E+01	 2.280E-01	 2.983E+01	 2.487E+00	 3.174E-02	 1.013E-01	-8.660E-03	 1.237E-02	 5.423E-02	 1.265E-01	 3.928E+01	 3.393E+01	 4.996E+00	 1.359E+00	 2.688E+00	 4.471E+00	 3.756E+01	-3.672E+00	-3.670E+00
  15.820	 1.144E+02	-7.269E-01	 1.748E-01	-2.170E-02	 6.459E+01	 5.751E-01	 3.002E+01	 2.490E+00	 3.158E-02	 1.015E-01	-7.011E-03	 1.194E-02	 1.199E-01	-1.586E-01	 3.933E+01	 3.279E+01	 4.924E+00	 1.152E+00	 2.547E+00	 4.449E+00	 3.768E+01	-2.901E+00	-2.899E+00
  15.840	 1.209E+02	-8.192E-01	 1.743E-01	-2.220E-02	 6.454E+01	 5.470E-01	 3.000E+01	 2.535E+00	 3.147E-02	 1.017E-01	-3.701E-03	 7.063E-03	 2.093E-01	-2.932E-01	 3.947E+01	 3.160E+01	 4.862E+00	 9.353E-01	 2.420E+00	 4.391E+00	 3.764E+01	-2.152E+00	-2.151E+00
  15.860	 1.274E+02	-9.000E-01	 1.738E-01	-2.262E-02	 6.455E+01	 1.342E-01	 2.981E+01	 2.640E+00	 3.145E-02	 1.018E-01	 1.081E-03	 1.656E-03	 2.587E-01	-2.159E-01	 3.968E+01	 3.050E+01	 4.814E+00	 7.095E-01	 2.333E+00	 4.312E+00	 3.755E+01	-1.391E+00	-1.391E+00
  15.880	 1.340E+02	-9.687E-01	 1.735E-01	-2.302E-02	 6.447E+01	-4.174E-01	 2.962E+01	 2.789E+00	 3.152E-02	 1.018E-01	 6.168E-03	-8.238E-04	 2.384E-01	-2.753E-02	 3.992E+01	 2.938E+01	 4.771E+00	 4.528E-01	 2.263E+00	 4.242E+00	 3.753E+01	-6.610E-01	-6.620E-01
  15.900	 1.405E+02	-1.025E+00	 1.730E-01	-2.354E-02	 6.433E+01	-8.283E-01	 2.955E+01	 2.932E+00	 3.168E-02	 1.018E-01	 1.027E-02	 2.245E-04	 1.669E-01	 1.140E-01	 4.011E+01	 2.804E+01	 4.720E+00	 1.455E-01	 2.174E+00	 4.210E+00	 3.758E+01	-5.587E-02	-5.762E-02
  15.920	 1.470E+02	-1.067E+00	 1.725E-01	-2.423E-02	 6.432E+01	-1.015E+00	 2.956E+01	 3.037E+00	 3.192E-02	 1.018E-01	 1.283E-02	 2.814E-03	 9.007E-02	 1.106E-01	 4.026E+01	 2.634E+01	 4.656E+00	-2.210E-01	 2.041E+00	 4.216E+00	 3.763E+01	 3.184E-01	 3.160E-01
  15.940	 1.535E+02	-1.096E+00	 1.718E-01	-2.508E-02	 6.432E+01	-9.790E-01	 2.962E+01	 3.096E+00	 3.219E-02	 1.019E-01	 1.414E-02	 4.001E-03	 4.812E-02	-9.114E-04	 4.042E+01	 2.429E+01	 4.605E+00	-6.321E-01	 1.862E+00	 4.242E+00	 3.762E+01	 4.078E-01	 4.049E-01
  15.960	 1.600E+02	-1.110E+00	 1.711E-01	-2.599E-02	 6.458E+01	-9.717E-01	 2.945E+01	 3.131E+00	 3.248E-02	 1.020E-01	 1.488E-02	 2.404E-03	 2.849E-02	-1.607E-01	 4.052E+01	 2.205E+01	 4.526E+00	-1.067E+00	 1.672E+00	 4.267E+00	 3.748E+01	 2.649E-01	 2.616E-01
  15.980	 1.665E+02	-1.111E+00	 1.701E-01	-2.689E-02	 6.477E+01	-1.036E+00	 2.794E+01	 3.189E+00	 3.278E-02	 1.020E-01	 1.540E-02	-2.165E-03	 2.278E-02	-2.963E-01	 4.022E+01	 1.960E+01	 4.368E+00	-1.526E+00	 1.527E+00	 4.281E+00	 3.716E+01	-2.108E-01	-2.144E-01
  16.000	 1.731E+02	-1.101E+00	 1.685E-01	-2.771E-02	 6.432E+01	-9.259E-01	 2.180E+01	 3.423E+00	 3.310E-02	 1.019E-01	 1.590E-02	-7.697E-03	 1.688E-02	-2.061E-01	 3.964E+01	 1.717E+01	 4.244E+00	-1.971E+00	 1.559E+00	 4.571E+00	 3.680E+01	-7.781E-01	-7.818E-01
[...]
  18.500	 2.675E+02	 2.478E-01	 1.824E-01	-3.832E-02	 6.434E+01	-3.393E+00	 2.917E+01	 3.998E+00	 3.206E-02	 9.984E-02	-1.530E-02	-5.978E-03	 1.782E-01	-2.186E-03	 4.205E+01	-2.831E+00	 4.183E+00	-6.338E+00	-3.238E-01	 4.565E+00	 3.690E+01	-5.768E+00	-5.765E+00
  18.520	 2.740E+02	 3.748E-01	 1.829E-01	-3.878E-02	 6.513E+01	-2.786E+00	 2.888E+01	 3.790E+00	 3.179E-02	 9.974E-02	-1.201E-02	-2.363E-03	 1.407E-01	 3.372E-01	 4.214E+01	-3.339E+00	 4.251E+00	-6.409E+00	-4.139E-01	 4.506E+00	 3.695E+01	-5.298E+00	-5.294E+00
  18.540	 2.806E+02	 4.962E-01	 1.830E-01	-3.890E-02	 6.541E+01	-2.513E+00	 2.875E+01	 3.716E+00	 3.157E-02	 9.977E-02	-9.847E-03	 5.688E-03	 7.881E-02	 4.148E-01	 4.199E+01	-3.050E+00	 4.291E+00	-6.388E+00	-3.874E-01	 4.452E+00	 3.722E+01	-4.579E+00	-4.577E+00
  18.560	 2.871E+02	 6.100E-01	 1.828E-01	-3.859E-02	 6.516E+01	-2.659E+00	 2.880E+01	 3.759E+00	 3.139E-02	 9.996E-02	-8.528E-03	 1.231E-02	 6.512E-02	 2.123E-01	 4.162E+01	-2.090E+00	 4.308E+00	-6.271E+00	-2.686E-01	 4.421E+00	 3.753E+01	-3.775E+00	-3.772E+00
  18.580	 2.936E+02	 7.145E-01	 1.822E-01	-3.797E-02	 6.496E+01	-2.994E+00	 2.891E+01	 3.813E+00	 3.123E-02	 1.002E-01	-6.747E-03	 1.357E-02	 1.233E-01	-8.111E-02	 4.120E+01	-8.551E-01	 4.327E+00	-6.086E+00	-1.236E-01	 4.404E+00	 3.768E+01	-3.000E+00	-2.998E+00
  18.600	 3.001E+02	 8.084E-01	 1.811E-01	-3.727E-02	 6.524E+01	-3.150E+00	 2.897E+01	 3.780E+00	 3.113E-02	 1.005E-01	-3.385E-03	 9.973E-03	 2.125E-01	-2.440E-01	 4.086E+01	 3.068E-01	 4.371E+00	-5.868E+00	-6.039E-03	 4.388E+00	 3.765E+01	-2.252E+00	-2.251E+00
  18.620	 3.066E+02	 8.907E-01	 1.797E-01	-3.663E-02	 6.588E+01	-2.916E+00	 2.900E+01	 3.647E+00	 3.111E-02	 1.006E-01	 1.520E-03	 5.274E-03	 2.685E-01	-1.921E-01	 4.061E+01	 1.336E+00	 4.439E+00	-5.636E+00	 7.064E-02	 4.373E+00	 3.756E+01	-1.492E+00	-1.492E+00
  18.640	 3.131E+02	 9.611E-01	 1.784E-01	-3.606E-02	 6.644E+01	-2.418E+00	 2.905E+01	 3.481E+00	 3.119E-02	 1.007E-01	 6.880E-03	 3.163E-03	 2.556E-01	-1.095E-02	 4.037E+01	 2.413E+00	 4.506E+00	-5.382E+00	 1.376E-01	 4.363E+00	 3.752E+01	-7.533E-01	-7.542E-01
  18.660	 3.197E+02	 1.019E+00	 1.776E-01	-3.546E-02	 6.653E+01	-1.882E+00	 2.911E+01	 3.344E+00	 3.138E-02	 1.008E-01	 1.136E-02	 4.619E-03	 1.866E-01	 1.399E-01	 4.007E+01	 3.758E+00	 4.552E+00	-5.085E+00	 2.369E-01	 4.357E+00	 3.756E+01	-1.238E-01	-1.254E-01
  18.680	 3.262E+02	 1.063E+00	 1.773E-01	-3.473E-02	 6.611E+01	-1.523E+00	 2.918E+01	 3.274E+00	 3.163E-02	 1.009E-01	 1.429E-02	 7.889E-03	 1.071E-01	 1.539E-01	 3.970E+01	 5.475E+00	 4.572E+00	-4.730E+00	 3.849E-01	 4.346E+00	 3.763E+01	 2.889E-01	 2.866E-01
  18.700	 3.327E+02	 1.093E+00	 1.774E-01	-3.385E-02	 6.559E+01	-1.405E+00	 2.919E+01	 3.242E+00	 3.194E-02	 1.011E-01	 1.587E-02	 9.948E-03	 5.834E-02	 4.159E-02	 3.930E+01	 7.507E+00	 4.563E+00	-4.312E+00	 5.789E-01	 4.327E+00	 3.762E+01	 4.083E-01	 4.055E-01
  18.720	 3.392E+02	 1.109E+00	 1.778E-01	-3.288E-02	 6.517E+01	-1.346E+00	 2.920E+01	 3.231E+00	 3.227E-02	 1.013E-01	 1.680E-02	 9.247E-03	 3.492E-02	-1.256E-01	 3.886E+01	 9.663E+00	 4.513E+00	-3.844E+00	 7.813E-01	 4.299E+00	 3.749E+01	 2.938E-01	 2.906E-01
  18.740	 3.457E+02	 1.112E+00	 1.784E-01	-3.193E-02	 6.598E+01	-1.086E+00	 2.937E+01	 3.253E+00	 3.261E-02	 1.014E-01	 1.743E-02	 5.398E-03	 2.748E-02	-2.618E-01	 3.822E+01	 1.188E+01	 4.410E+00	-3.316E+00	 9.832E-01	 4.278E+00	 3.720E+01	-1.233E-01	-1.268E-01
  18.760	 3.522E+02	 1.103E+00	 1.801E-01	-3.100E-02	 5.790E+01	 1.943E+00	 2.957E+01	 3.222E+00	 3.296E-02	 1.015E-01	 1.801E-02	-2.487E-05	 2.600E-02	-2.155E-01	 3.737E+01	 1.412E+01	 4.394E+00	-2.758E+00	 1.205E+00	 4.269E+00	 3.681E+01	-7.393E-01	-7.430E-01
  18.780	 3.588E+02	 1.083E+00	 1.793E-01	-2.906E-02	 5.100E+01	 1.380E+00	 3.072E+01	 3.545E+00	 3.332E-02	 1.014E-01	 1.748E-02	-4.469E-03	-8.248E-02	-3.280E-01	 3.545E+01	 1.641E+01	 4.242E+00	-2.309E+00	 1.360E+00	 4.242E+00	 3.640E+01	-1.442E+00	-1.445E+00
  18.800	 5.280E+00	 1.060E+00	 1.751E-01	-2.659E-02	 6.350E+01	-4.011E+00	 2.991E+01	 3.380E+00	 3.365E-02	 1.013E-01	 1.592E-02	-8.189E-03	-7.284E-02	 8.183E-02	 3.476E+01	 1.898E+01	 4.141E+00	-1.733E+00	 1.674E+00	 4.184E+00	 3.500E+01	-2.594E+00	-2.598E+00
  18.820	 1.180E+01	 1.015E+00	 1.682E-01	-2.538E-02	 7.016E+01	-3.320E+00	 2.844E+01	 2.897E+00	 3.395E-02	 1.012E-01	 1.346E-02	-3.571E-03	-1.776E-01	 3.660E-01	 3.553E+01	 2.003E+01	 4.516E+00	-1.362E+00	 1.690E+00	 3.881E+00	 3.459E+01	-2.483E+00	-2.487E+00
  18.840	 1.831E+01	 9.512E-01	 1.620E-01	-2.515E-02	 7.211E+01	-6.353E-01	 2.750E+01	 2.379E+00	 3.418E-02	 1.012E-01	 9.167E-03	 4.107E-03	-2.369E-01	 3.240E-01	 3.646E+01	 2.079E+01	 4.910E+00	-1.190E+00	 1.654E+00	 3.716E+00	 3.554E+01	-1.890E+00	-1.892E+00
  18.860	 2.482E+01	 8.748E-01	 1.589E-01	-2.494E-02	 7.216E+01	 1.279E+00	 2.814E+01	 2.170E+00	 3.432E-02	 1.013E-01	 4.510E-03	 6.682E-03	-2.190E-01	-1.085E-01	 3.621E+01	 2.236E+01	 4.952E+00	-9.505E-01	 1.772E+00	 3.894E+00	 3.669E+01	-1.925E+00	-1.927E+00
  18.880	 3.134E+01	 7.865E-01	 1.592E-01	-2.416E-02	 6.879E+01	 1.754E+00	 2.949E+01	 2.306E+00	 3.437E-02	 1.014E-01	 6.160E-04	-1.954E-04	-1.687E-01	-5.350E-01	 3.534E+01	 2.461E+01	 4.814E+00	-5.623E-01	 1.989E+00	 4.222E+00	 3.715E+01	-2.840E+00	-2.841E+00
  18.900	 3.785E+01	 6.877E-01	 1.614E-01	-2.286E-02	 6.489E+01	 8.786E-01	 3.030E+01	 2.561E+00	 3.435E-02	 1.013E-01	-2.295E-03	-1.168E-02	-1.278E-01	-5.222E-01	 3.489E+01	 2.713E+01	 4.713E+00	-5.762E-02	 2.242E+00	 4.462E+00	 3.676E+01	-4.271E+00	-4.271E+00
  18.920	 4.437E+01	 5.808E-01	 1.643E-01	-2.158E-02	 6.360E+01	-4.593E-01	 3.009E+01	 2.705E+00	 3.428E-02	 1.009E-01	-4.833E-03	-1.794E-02	-1.360E-01	-5.484E-02	 3.529E+01	 2.945E+01	 4.749E+00	 4.460E-01	 2.475E+00	 4.515E+00	 3.606E+01	-5.552E+00	-5.551E+00
  18.940	 5.088E+01	 4.673E-01	 1.672E-01	-2.088E-02	 6.437E+01	-9.665E-01	 2.926E+01	 2.629E+00	 3.415E-02	 1.006E-01	-8.060E-03	-1.358E-02	-1.908E-01	 4.560E-01	 3.629E+01	 3.110E+01	 4.901E+00	 8.172E-01	 2.619E+00	 4.438E+00	 3.576E+01	-6.218E+00	-6.217E+00
  18.960	 5.739E+01	 3.478E-01	 1.702E-01	-2.096E-02	 6.515E+01	-1.924E-01	 2.862E+01	 2.388E+00	 3.395E-02	 1.004E-01	-1.240E-02	-2.361E-03	-2.359E-01	 5.819E-01	 3.725E+01	 3.195E+01	 5.050E+00	 1.012E+00	 2.651E+00	 4.365E+00	 3.607E+01	-6.268E+00	-6.266E+00
  18.980	 6.391E+01	 2.234E-01	 1.732E-01	-2.150E-02	 6.483E+01	 1.211E+00	 2.864E+01	 2.127E+00	 3.365E-02	 1.005E-01	-1.701E-02	 6.584E-03	-2.103E-01	 2.547E-01	 3.773E+01	 3.228E+01	 5.103E+00	 1.092E+00	 2.612E+00	 4.388E+00	 3.669E+01	-6.045E+00	-6.042E+00
  19.000	 7.042E+01	 9.534E-02	 1.760E-01	-2.196E-02	 6.368E+01	 2.229E+00	 2.911E+01	 1.977E+00	 3.328E-02	 1.007E-01	-2.023E-02	 6.869E-03	-9.910E-02	-2.137E-01	 3.783E+01	 3.253E+01	 5.076E+00	 1.160E+00	 2.569E+00	 4.480E+00	 3.713E+01	-5.900E+00	-5.897E+00
  19.020	 7.694E+01	-3.511E-02	 1.779E-01	-2.200E-02	 6.272E+01	 2.258E+00	 2.954E+01	 1.982E+00	 3.286E-02	 1.007E-01	-2.072E-02	-2.261E-04	 4.891E-02	-4.309E-01	 3.794E+01	 3.302E+01	 5.047E+00	 1.276E+00	 2.579E+00	 4.559E+00	 3.718E+01	-5.912E+00	-5.908E+00
  19.040	 8.345E+01	-1.661E-01	 1.787E-01	-2.161E-02	 6.272E+01	 1.435E+00	 2.965E+01	 2.111E+00	 3.246E-02	 1.006E-01	-1.857E-02	-7.715E-03	 1.532E-01	-2.587E-01	 3.825E+01	 3.378E+01	 5.052E+00	 1.427E+00	 2.653E+00	 4.572E+00	 3.700E+01	-5.895E+00	-5.892E+00
  19.060	 8.997E+01	-2.953E-01	 1.783E-01	-2.110E-02	 6.351E+01	 4.161E-01	 2.954E+01	 2.281E+00	 3.213E-02	 1.005E-01	-1.523E-02	-9.201E-03	 1.654E-01	 1.183E-01	 3.869E+01	 3.454E+01	 5.075E+00	 1.549E+00	 2.752E+00	 4.535E+00	 3.690E+01	-5.624E+00	-5.620E+00
  19.080	 9.648E+01	-4.205E-01	 1.774E-01	-2.081E-02	 6.433E+01	-1.489E-01	 2.949E+01	 2.415E+00	 3.185E-02	 1.003E-01	-1.241E-02	-3.758E-03	 1.113E-01	 3.835E-01	 3.906E+01	 3.488E+01	 5.083E+00	 1.574E+00	 2.806E+00	 4.495E+00	 3.704E+01	-5.045E+00	-5.042E+00
  19.100	 1.030E+02	-5.393E-01	 1.763E-01	-2.090E-02	 6.469E+01	-6.913E-02	 2.965E+01	 2.478E+00	 3.162E-02	 1.003E-01	-1.075E-02	 4.070E-03	 6.189E-02	 3.484E-01	 3.923E+01	 3.456E+01	 5.043E+00	 1.484E+00	 2.769E+00	 4.477E+00	 3.736E+01	-4.276E+00	-4.273E+00
  19.120	 1.095E+02	-6.498E-01	 1.753E-01	-2.131E-02	 6.468E+01	 3.413E-01	 2.991E+01	 2.486E+00	 3.142E-02	 1.005E-01	-9.487E-03	 8.637E-03	 7.690E-02	 8.767E-02	 3.926E+01	 3.367E+01	 4.972E+00	 1.308E+00	 2.654E+00	 4.468E+00	 3.762E+01	-3.475E+00	-3.473E+00
  19.140	 1.160E+02	-7.505E-01	 1.746E-01	-2.183E-02	 6.458E+01	 6.148E-01	 3.006E+01	 2.495E+00	 3.125E-02	 1.006E-01	-7.237E-03	 7.585E-03	 1.549E-01	-1.736E-01	 3.932E+01	 3.249E+01	 4.899E+00	 1.096E+00	 2.512E+00	 4.435E+00	 3.769E+01	-2.717E+00	-2.715E+00
  19.160	 1.225E+02	-8.402E-01	 1.740E-01	-2.230E-02	 6.456E+01	 4.784E-01	 2.998E+01	 2.556E+00	 3.114E-02	 1.007E-01	-3.247E-03	 2.951E-03	 2.394E-01	-2.525E-01	 3.946E+01	 3.132E+01	 4.839E+00	 8.795E-01	 2.394E+00	 4.368E+00	 3.762E+01	-1.967E+00	-1.967E+00
  19.180	 1.291E+02	-9.183E-01	 1.736E-01	-2.270E-02	 6.456E+01	-5.245E-03	 2.978E+01	 2.678E+00	 3.113E-02	 1.008E-01	 1.983E-03	-1.155E-03	 2.725E-01	-1.320E-01	 3.968E+01	 3.023E+01	 4.792E+00	 6.476E-01	 2.314E+00	 4.287E+00	 3.755E+01	-1.207E+00	-1.207E+00
  19.200	 1.356E+02	-9.840E-01	 1.732E-01	-2.311E-02	 6.446E+01	-5.384E-01	 2.962E+01	 2.828E+00	 3.122E-02	 1.007E-01	 7.171E-03	-1.859E-03	 2.359E-01	 5.916E-02	 3.991E+01	 2.907E+01	 4.747E+00	 3.809E-01	 2.244E+00	 4.224E+00	 3.754E+01	-4.974E-01	-4.987E-01
  19.220	 1.421E+02	-1.037E+00	 1.727E-01	-2.367E-02	 6.433E+01	-8.910E-01	 2.959E+01	 2.965E+00	 3.141E-02	 1.007E-01	 1.115E-02	 6.631E-04	 1.596E-01	 1.724E-01	 4.009E+01	 2.765E+01	 4.695E+00	 5.923E-02	 2.146E+00	 4.202E+00	 3.760E+01	 6.042E-02	 5.849E-02
  19.240	 1.486E+02	-1.076E+00	 1.721E-01	-2.440E-02	 6.434E+01	-1.012E+00	 2.960E+01	 3.055E+00	 3.166E-02	 1.007E-01	 1.359E-02	 3.973E-03	 8.817E-02	 1.301E-01	 4.022E+01	 2.585E+01	 4.628E+00	-3.197E-01	 2.000E+00	 4.216E+00	 3.763E+01	 3.625E-01	 3.600E-01
  19.260	 1.551E+02	-1.101E+00	 1.714E-01	-2.527E-02	 6.436E+01	-9.628E-01	 2.969E+01	 3.114E+00	 3.194E-02	 1.008E-01	 1.497E-02	 5.398E-03	 5.587E-02	 1.151E-02	 4.042E+01	 2.375E+01	 4.587E+00	-7.383E-01	 1.814E+00	 4.245E+00	 3.760E+01	 4.039E-01	 4.009E-01
  19.280	 1.617E+02	-1.112E+00	 1.706E-01	-2.619E-02	 6.465E+01	-9.909E-01	 2.931E+01	 3.152E+00	 3.225E-02	 1.009E-01	 1.586E-02	 3.768E-03	 3.847E-02	-1.572E-01	 4.044E+01	 2.146E+01	 4.487E+00	-1.180E+00	 1.626E+00	 4.264E+00	 3.743E+01	 1.877E-01	 1.844E-01
  19.300	 1.682E+02	-1.110E+00	 1.695E-01	-2.708E-02	 6.475E+01	-1.011E+00	 2.670E+01	 3.199E+00	 3.258E-02	 1.010E-01	 1.656E-02	-7.455E-04	 3.289E-02	-2.852E-01	 3.999E+01	 1.893E+01	 4.304E+00	-1.643E+00	 1.523E+00	 4.320E+00	 3.703E+01	-4.007E-01	-4.043E-01
  19.320	 1.747E+02	-1.097E+00	 1.679E-01	-2.786E-02	 6.448E+01	-1.011E+00	 2.250E+01	 3.580E+00	 3.291E-02	 1.009E-01	 1.717E-02	-5.017E-03	 6.902E-04	-1.489E-01	 3.918E+01	 1.664E+01	 4.145E+00	-2.079E+00	 1.528E+00	 4.704E+00	 3.677E+01	-8.335E-01	-8.372E-01
  19.340	 1.812E+02	-1.076E+00	 1.648E-01	-2.849E-02	 6.381E+01	-9.751E-01	 3.517E+01	 3.554E+00	 3.325E-02	 1.008E-01	 1.605E-02	-1.000E-02	-7.487E-02	-2.609E-01	 3.700E+01	 1.304E+01	 3.703E+00	-2.621E+00	 9.283E-01	 4.927E+00	 3.579E+01	-2.044E+00	-2.047E+00
  19.360	 1.877E+02	-1.047E+00	 1.603E-01	-2.906E-02	 6.344E+01	-9.088E-01	 3.147E+01	 3.112E+00	 3.356E-02	 1.006E-01	 1.465E-02	-9.652E-03	-9.854E-02	 2.299E-01	 3.837E+01	 9.965E+00	 4.079E+00	-3.047E+00	 4.797E-01	 4.380E+00	 3.464E+01	-2.712E+00	-2.716E+00
  19.380	 1.942E+02	-9.933E-01	 1.583E-01	-2.945E-02	 6.908E+01	-2.715E+00	 2.959E+01	 3.231E+00	 3.382E-02	 1.004E-01	 1.156E-02	-2.528E-03	-2.010E-01	 4.356E-01	 3.958E+01	 9.487E+00	 4.182E+00	-3.314E+00	 5.660E-01	 3.863E+00	 3.487E+01	-2.219E+00	-2.222E+00
  19.400	 2.008E+02	-9.240E-01	 1.592E-01	-2.998E-02	 7.011E+01	-3.734E+00	 2.842E+01	 3.662E+00	 3.401E-02	 1.005E-01	 7.131E-03	 4.757E-03	-2.276E-01	 2.205E-01	 4.011E+01	 9.486E+00	 4.208E+00	-3.615E+00	 7.332E-01	 3.561E+00	 3.602E+01	-1.789E+00	-1.791E+00
  19.420	 2.073E+02	-8.431E-01	 1.625E-01	-3.095E-02	 6.626E+01	-3.531E+00	 2.867E+01	 3.991E+00	 3.411E-02	 1.006E-01	 2.876E-03	 4.346E-03	-1.917E-01	-2.709E-01	 3.974E+01	 8.453E+00	 4.052E+00	-4.015E+00	 7.230E-01	 3.570E+00	 3.699E+01	-2.175E+00	-2.177E+00
  19.440	 2.138E+02	-7.504E-01	 1.670E-01	-3.231E-02	 6.261E+01	-2.931E+00	 2.963E+01	 4.027E+00	 3.413E-02	 1.006E-01	-4.404E-04	-4.708E-03	-1.406E-01	-5.630E-01	 3.906E+01	 6.141E+00	 3.796E+00	-4.474E+00	 4.964E-01	 3.804E+00	 3.709E+01	-3.357E+00	-3.357E+00
  19.460	 2.203E+02	-6.481E-01	 1.710E-01	-3.385E-02	 6.140E+01	-2.309E+00	 3.017E+01	 3.813E+00	 3.410E-02	 1.004E-01	-2.923E-03	-1.468E-02	-1.156E-01	-3.492E-01	 3.899E+01	 3.105E+00	 3.684E+00	-4.937E+00	 1.355E-01	 4.036E+00	 3.649E+01	-4.808E+00	-4.807E+00
  19.480	 2.268E+02	-5.385E-01	 1.734E-01	-3.525E-02	 6.258E+01	-1.974E+00	 2.985E+01	 3.577E+00	 3.401E-02	 1.000E-01	-5.447E-03	-1.641E-02	-1.457E-01	 1.930E-01	 3.977E+01	 4.581E-01	 3.788E+00	-5.336E+00	-1.757E-01	 4.144E+00	 3.587E+01	-5.885E+00	-5.884E+00
  19.500	 2.333E+02	-4.225E-01	 1.748E-01	-3.626E-02	 6.467E+01	-2.197E+00	 2.917E+01	 3.549E+00	 3.387E-02	 9.978E-02	-8.958E-03	-7.974E-03	-2.053E-01	 5.891E-01	 4.087E+01	-9.270E-01	 3.976E+00	-5.624E+00	-2.887E-01	 4.180E+00	 3.581E+01	-6.293E+00	-6.291E+00
  19.520	 2.398E+02	-3.008E-01	 1.760E-01	-3.680E-02	 6.571E+01	-2.865E+00	 2.878E+01	 3.778E+00	 3.365E-02	 9.975E-02	-1.342E-02	 3.960E-03	-2.295E-01	 5.222E-01	 4.165E+01	-1.104E+00	 4.108E+00	-5.806E+00	-2.170E-01	 4.242E+00	 3.630E+01	-6.194E+00	-6.191E+00
  19.540	 2.464E+02	-1.748E-01	 1.775E-01	-3.704E-02	 6.511E+01	-3.619E+00	 2.891E+01	 4.104E+00	 3.334E-02	 9.991E-02	-1.757E-02	 1.041E-02	-1.701E-01	 9.060E-02	 4.191E+01	-8.401E-01	 4.140E+00	-5.930E+00	-9.470E-02	 4.361E+00	 3.690E+01	-5.974E+00	-5.971E+00
  19.560	 2.529E+02	-4.551E-02	 1.794E-01	-3.724E-02	 6.397E+01	-4.092E+00	 2.927E+01	 4.307E+00	 3.296E-02	 1.001E-01	-1.972E-02	 7.739E-03	-3.724E-02	-3.199E-01	 4.187E+01	-9.237E-01	 4.120E+00	-6.046E+00	-5.424E-02	 4.494E+00	 3.718E+01	-5.900E+00	-5.896E+00
  19.580	 2.594E+02	 8.546E-02	 1.810E-01	-3.763E-02	 6.358E+01	-4.058E+00	 2.942E+01	 4.272E+00	 3.257E-02	 1.002E-01	-1.901E-02	-1.036E-05	 1.024E-01	-3.873E-01	 4.188E+01	-1.626E+00	 4.120E+00	-6.178E+00	-1.383E-01	 4.574E+00	 3.711E+01	-5.933E+00	-5.929E+00
  19.600	 2.659E+02	 2.161E-01	 1.821E-01	-3.817E-02	 6.415E+01	-3.554E+00	 2.924E+01	 4.058E+00	 3.221E-02	 1.001E-01	-1.610E-02	-5.341E-03	 1.724E-01	-1.053E-01	 4.202E+01	-2.618E+00	 4.167E+00	-6.310E+00	-2.892E-01	 4.571E+00	 3.692E+01	-5.838E+00	-5.835E+00
  19.620	 2.724E+02	 3.441E-01	 1.827E-01	-3.869E-02	 6.498E+01	-2.915E+00	 2.893E+01	 3.830E+00	 3.193E-02	 1.000E-01	-1.273E-02	-3.659E-03	 1.516E-01	 2.596E-01	 4.213E+01	-3.284E+00	 4.237E+00	-6.399E+00	-4.019E-01	 4.517E+00	 3.691E+01	-5.443E+00	-5.440E+00
  19.640	 2.789E+02	 4.671E-01	 1.830E-01	-3.890E-02	 6.540E+01	-2.541E+00	 2.876E+01	 3.720E+00	 3.170E-02	 1.000E-01	-1.032E-02	 3.575E-03	 8.892E-02	 4.120E-01	 4.204E+01	-3.194E+00	 4.286E+00	-6.403E+00	-4.041E-01	 4.461E+00	 3.715E+01	-4.774E+00	-4.771E+00
  19.660	 2.854E+02	 5.829E-01	 1.829E-01	-3.870E-02	 6.524E+01	-2.595E+00	 2.878E+01	 3.742E+00	 3.151E-02	 1.002E-01	-8.950E-03	 1.079E-02	 5.879E-02	 2.669E-01	 4.172E+01	-2.369E+00	 4.306E+00	-6.308E+00	-3.027E-01	 4.425E+00	 3.746E+01	-3.976E+00	-3.973E+00
  19.680	 2.920E+02	 6.897E-01	 1.824E-01	-3.814E-02	 6.497E+01	-2.914E+00	 2.889E+01	 3.804E+00	 3.134E-02	 1.004E-01	-7.472E-03	 1.326E-02	 1.009E-01	-2.383E-02	 4.130E+01	-1.167E+00	 4.322E+00	-6.136E+00	-1.588E-01	 4.407E+00	 3.766E+01	-3.188E+00	-3.187E+00
  19.700	 2.985E+02	 7.863E-01	 1.814E-01	-3.745E-02	 6.513E+01	-3.142E+00	 2.896E+01	 3.797E+00	 3.122E-02	 1.007E-01	-4.601E-03	 1.043E-02	 1.888E-01	-2.300E-01	 4.095E+01	 2.807E-02	 4.360E+00	-5.924E+00	-3.188E-02	 4.393E+00	 3.766E+01	-2.438E+00	-2.437E+00
  19.720	 3.050E+02	 8.715E-01	 1.800E-01	-3.679E-02	 6.572E+01	-3.009E+00	 2.898E+01	 3.687E+00	 3.117E-02	 1.008E-01	-5.468E-05	 5.490E-03	 2.573E-01	-2.283E-01	 4.068E+01	 1.075E+00	 4.423E+00	-5.696E+00	 5.407E-02	 4.377E+00	 3.757E+01	-1.679E+00	-1.678E+00
  19.740	 3.115E+02	 9.449E-01	 1.787E-01	-3.621E-02	 6.632E+01	-2.548E+00	 2.903E+01	 3.521E+00	 3.122E-02	 1.009E-01	 5.274E-03	 2.411E-03	 2.629E-01	-6.457E-02	 4.045E+01	 2.122E+00	 4.494E+00	-5.449E+00	 1.190E-01	 4.367E+00	 3.752E+01	-9.279E-01	-9.286E-01
  19.760	 3.180E+02	 1.006E+00	 1.778E-01	-3.563E-02	 6.655E+01	-2.002E+00	 2.909E+01	 3.372E+00	 3.138E-02	 1.009E-01	 1.003E-02	 2.938E-03	 2.046E-01	 1.056E-01	 4.016E+01	 3.389E+00	 4.545E+00	-5.165E+00	 2.079E-01	 4.361E+00	 3.755E+01	-2.624E-01	-2.638E-01
  19.780	 3.245E+02	 1.053E+00	 1.774E-01	-3.494E-02	 6.625E+01	-1.591E+00	 2.915E+01	 3.279E+00	 3.161E-02	 1.010E-01	 1.332E-02	 5.878E-03	 1.255E-01	 1.652E-01	 3.982E+01	 5.013E+00	 4.583E+00	-4.827E+00	 3.449E-01	 4.353E+00	 3.762E+01	 2.145E-01	 2.124E-01
  19.800	 3.311E+02	 1.087E+00	 1.774E-01	-3.409E-02	 6.570E+01	-1.418E+00	 2.919E+01	 3.248E+00	 3.190E-02	 1.012E-01	 1.515E-02	 8.324E-03	 6.571E-02	 6.934E-02	 3.941E+01	 6.984E+00	 4.568E+00	-4.420E+00	 5.287E-01	 4.336E+00	 3.763E+01	 3.999E-01	 3.973E-01
  19.820	 3.376E+02	 1.107E+00	 1.778E-01	-3.313E-02	 6.524E+01	-1.378E+00	 2.919E+01	 3.243E+00	 3.221E-02	 1.013E-01	 1.618E-02	 8.348E-03	 3.881E-02	-8.589E-02	 3.900E+01	 9.124E+00	 4.540E+00	-3.968E+00	 7.281E-01	 4.309E+00	 3.755E+01	 3.490E-01	 3.459E-01
  19.840	 3.441E+02	 1.112E+00	 1.783E-01	-3.217E-02	 6.544E+01	-1.217E+00	 2.928E+01	 3.240E+00	 3.254E-02	 1.015E-01	 1.684E-02	 5.142E-03	 2.924E-02	-2.282E-01	 3.845E+01	 1.132E+01	 4.452E+00	-3.459E+00	 9.321E-01	 4.284E+00	 3.731E+01	 2.250E-02	 1.906E-02
  19.860	 3.506E+02	 1.106E+00	 1.797E-01	-3.127E-02	 6.548E+01	 4.723E-01	 2.951E+01	 3.231E+00	 3.289E-02	 1.015E-01	 1.740E-02	-3.526E-04	 3.289E-02	-2.476E-01	 3.761E+01	 1.359E+01	 4.367E+00	-2.882E+00	 1.156E+00	 4.275E+00	 3.686E+01	-6.297E-01	-6.333E-01
  19.880	 3.571E+02	 1.089E+00	 1.801E-01	-2.971E-02	 4.518E+01	 3.181E+00	 3.034E+01	 3.392E+00	 3.324E-02	 1.015E-01	 1.739E-02	-4.438E-03	-6.248E-02	-2.613E-01	 3.610E+01	 1.573E+01	 4.372E+00	-2.451E+00	 1.313E+00	 4.245E+00	 3.666E+01	-1.079E+00	-1.083E+00
  19.900	 3.651E+00	 1.067E+00	 1.765E-01	-2.714E-02	 5.961E+01	-3.327E+00	 3.027E+01	 3.436E+00	 3.357E-02	 1.013E-01	 1.581E-02	-9.757E-03	-6.854E-02	-5.592E-02	 3.472E+01	 1.846E+01	 4.070E+00	-1.856E+00	 1.628E+00	 4.227E+00	 3.528E+01	-2.433E+00	-2.436E+00
  19.920	 1.017E+01	 1.028E+00	 1.702E-01	-2.557E-02	 6.922E+01	-3.818E+00	 2.886E+01	 3.043E+00	 3.387E-02	 1.012E-01	 1.385E-02	-6.681E-03	-1.508E-01	 3.054E-01	 3.523E+01	 1.986E+01	 4.380E+00	-1.418E+00	 1.703E+00	 3.961E+00	 3.451E+01	-2.629E+00	-2.632E+00
  19.940	 1.668E+01	 9.682E-01	 1.635E-01	-2.520E-02	 7.171E+01	-1.276E+00	 2.757E+01	 2.483E+00	 3.411E-02	 1.011E-01	 9.917E-03	 1.001E-03	-2.298E-01	 3.824E-01	 3.635E+01	 2.053E+01	 4.844E+00	-1.233E+00	 1.649E+00	 3.725E+00	 3.524E+01	-1.998E+00	-2.001E+00
  19.960	 2.319E+01	 8.944E-01	 1.596E-01	-2.507E-02	 7.238E+01	 9.486E-01	 2.784E+01	 2.181E+00	 3.426E-02	 1.012E-01	 5.234E-03	 5.655E-03	-2.271E-01	 2.381E-02	 3.639E+01	 2.188E+01	 4.971E+00	-1.025E+00	 1.729E+00	 3.827E+00	 3.645E+01	-1.824E+00	-1.826E+00
  19.980	 2.971E+01	 8.089E-01	 1.591E-01	-2.445E-02	 6.978E+01	 1.784E+00	 2.919E+01	 2.249E+00	 3.432E-02	 1.013E-01	 1.141E-03	 1.139E-03	-1.794E-01	-4.521E-01	 3.558E+01	 2.401E+01	 4.853E+00	-6.739E-01	 1.930E+00	 4.146E+00	 3.713E+01	-2.541E+00	-2.542E+00
  20.000	 3.622E+01	 7.123E-01	 1.609E-01	-2.323E-02	 6.565E+01	 1.191E+00	 3.020E+01	 2.500E+00	 3.431E-02	 1.012E-01	-1.941E-03	-9.960E-03	-1.321E-01	-5.705E-01	 3.495E+01	 2.650E+01	 4.730E+00	-1.895E-01	 2.179E+00	 4.424E+00	 3.692E+01	-3.906E+00	-3.906E+00
