
These predictions were generated by FAST (v7.02.00d-bjj, 20-Feb-2013) on 24-Jan-2014 at 12:38:40.
The aerodynamic calculations were made by AeroDyn (v13.00.02a-bjj, 20-Feb-2013).

 FAST certification Test #07: AOC 15/50 with many DOFs with free yaw and FF turbulence.

Time	TotWindV	TipDxc3	TipDyc3	TipDzb3	TipALzb3	Spn3ALxb1	Spn3ALyb1	TipSpdRat	YawBrTAxp	YawBrTAyp	NacYawV	NacYawA	RootFxc3	RootFyc3	RootMIP3	RootMOoP3	Spn1MLxb1	Spn1MLyb1	LSSTipMya	LSSTipMza	LSSGagMys	LSSGagMzs	TwrBsMxt	TwrBsMyt	Spn1RDxb3	Spn2RDyb3	Spn3RDzb3
(s)	(m/s)	(m)	(m)	(m)	(m/s^2)	(m/s^2)	(m/s^2)	(-)	(m/s^2)	(m/s^2)	(deg/s)	(deg/s^2)	(kN)	(kN)	(kN·m)	(kN·m)	(kN·m)	(kN·m)	(kN·m)	(kN·m)	(kN·m)	(kN·m)	(kN·m)	(kN·m)	(deg)	(deg)	(deg)
  10.000	 1.489E+01	-2.014E-02	-7.601E-03	-5.361E-05	-3.324E+02	 2.236E+01	 1.781E+00	 3.365E+00	-3.947E-02	-2.469E-01	-1.365E+01	-1.510E+01	-9.363E-01	-1.680E+00	 5.767E+00	-3.031E+00	-1.326E+00	-4.066E-01	-3.036E+00	 1.003E+01	 7.082E+00	-1.100E+00	-2.766E+01	 1.959E+02	 2.377E-02	-5.613E-02	 0.000E+00
  10.050	 1.494E+01	-1.631E-02	-4.188E-03	-3.065E-05	-3.319E+02	 1.941E+01	 7.476E-01	 3.361E+00	-8.207E-02	-5.299E-01	-1.282E+01	 2.375E+01	-1.050E+00	-1.047E+00	 3.448E+00	-3.077E+00	-1.883E+00	-1.371E-01	-9.521E-01	 8.499E+00	 5.169E+00	 6.733E-01	-2.867E+01	 1.888E+02	 1.379E-02	-5.463E-02	 0.000E+00
  10.100	 1.512E+01	-3.649E-02	-2.480E-03	-1.563E-04	-3.328E+02	 1.712E+01	 1.988E+00	 3.315E+00	-3.502E-03	-1.544E-01	-1.244E+01	-2.182E+01	-1.376E+00	-8.521E-01	 3.129E+00	-4.995E+00	-1.099E+00	 2.246E+00	 3.771E+00	 8.458E+00	 5.986E+00	-1.444E+00	-1.721E+01	 1.780E+02	 1.223E-02	-1.104E-01	 0.000E+00
  10.150	 1.533E+01	-5.047E-02	 5.211E-04	-2.790E-04	-3.316E+02	 1.238E+01	-9.532E-02	 3.276E+00	 2.189E-01	-1.445E-01	-1.353E+01	-4.928E-01	-1.901E+00	-3.241E-01	 1.557E+00	-7.393E+00	-1.947E+00	 4.111E+00	 8.037E+00	 1.070E+01	 9.967E+00	-2.464E-01	-6.068E+00	 1.610E+02	 5.886E-03	-1.776E-01	 0.000E+00
  10.200	 1.561E+01	-5.138E-02	 4.889E-03	-2.967E-04	-3.333E+02	 9.649E+00	 1.753E+00	 3.216E+00	 3.827E-01	-2.830E-01	-1.215E+01	 4.969E+01	-1.656E+00	 4.740E-01	-1.175E+00	-6.773E+00	-3.744E-01	 5.124E+00	 9.723E+00	 8.888E+00	 9.629E+00	 2.139E+00	 9.638E+00	 1.577E+02	-5.793E-03	-1.738E-01	 0.000E+00
  10.250	 1.552E+01	-2.665E-02	 1.484E-03	-8.491E-05	-3.357E+02	 9.939E+00	 9.983E-01	 3.233E+00	 3.943E-01	 3.588E-01	-1.157E+01	-3.370E+01	-9.134E-01	 3.804E-01	-1.676E-01	-3.187E+00	 4.674E-01	 6.021E+00	 1.057E+01	 2.006E+00	 7.497E+00	-9.796E-01	 3.098E+01	 1.626E+02	 6.565E-06	-7.715E-02	 0.000E+00
  10.300	 1.568E+01	-6.582E-03	 1.048E-03	-5.984E-06	-3.327E+02	 8.591E+00	-1.550E+00	 3.198E+00	 3.506E-01	 6.009E-01	-1.400E+01	-4.225E+01	-5.206E-01	 6.788E-01	-9.547E-01	-1.034E+00	 1.705E-01	 6.603E+00	 1.179E+01	-2.070E+00	 8.579E+00	-1.477E+00	 4.332E+01	 1.701E+02	-1.793E-03	-1.354E-02	 0.000E+00
  10.350	 1.597E+01	-8.854E-03	 5.145E-03	-1.262E-05	-3.333E+02	 8.350E+00	 3.994E+00	 3.142E+00	 1.185E-01	 1.343E-02	-1.350E+01	 4.734E+01	-3.003E-01	 1.232E+00	-3.278E+00	-8.160E-01	 3.610E+00	 7.275E+00	 1.173E+01	-2.638E+00	 8.292E+00	 2.688E+00	 4.259E+01	 1.851E+02	-1.259E-02	-1.954E-02	 0.000E+00
  10.400	 1.591E+01	 7.416E-03	 1.045E-03	-4.202E-06	-3.356E+02	 1.103E+01	 1.153E+00	 3.148E+00	-2.434E-01	 2.028E-01	-1.134E+01	 2.777E+01	 2.514E-01	 8.411E-01	-1.432E+00	 1.549E+00	 2.987E+00	 5.336E+00	 8.400E+00	-6.022E+00	 6.964E+00	 1.482E+00	 4.736E+01	 2.090E+02	-3.738E-03	 4.220E-02	 0.000E+00
  10.450	 1.619E+01	 3.187E-02	 3.708E-04	-1.056E-04	-3.350E+02	 1.336E+01	-1.579E-01	 3.097E+00	-5.681E-01	 4.899E-01	-1.212E+01	-3.476E+01	 8.519E-01	 8.914E-01	-1.967E+00	 4.497E+00	 3.374E+00	 2.648E+00	 4.890E+00	-1.115E+01	 8.782E+00	-1.157E+00	 4.439E+01	 2.218E+02	-5.492E-03	 1.238E-01	 0.000E+00
  10.500	 1.654E+01	 3.432E-02	-9.207E-04	-1.151E-04	-3.366E+02	 1.865E+01	 3.002E+00	 3.030E+00	-4.299E-01	-5.056E-02	-1.260E+01	 2.656E+01	 1.404E+00	 5.018E-01	-9.546E-01	 5.909E+00	 5.239E+00	 2.782E+00	 2.881E+00	-1.196E+01	 8.740E+00	 1.116E+00	 2.860E+01	 2.197E+02	-2.110E-03	 1.521E-01	 0.000E+00
  10.550	 1.654E+01	 4.733E-02	-6.421E-03	-2.296E-04	-3.361E+02	 2.245E+01	 8.130E-01	 3.031E+00	-1.785E-01	-2.783E-01	-1.030E+01	 2.014E+01	 1.671E+00	-2.400E-01	 1.906E+00	 7.413E+00	 4.050E+00	 1.898E+00	-9.438E-01	-1.040E+01	 7.055E+00	 1.089E+00	 1.704E+01	 2.176E+02	 1.098E-02	 1.982E-01	 0.000E+00
  10.600	 1.627E+01	 5.907E-02	-5.821E-03	-3.573E-04	-3.356E+02	 2.436E+01	 2.028E+00	 3.086E+00	 4.688E-02	-6.595E-02	-1.017E+01	-1.926E+01	 2.069E+00	-3.008E-01	 1.332E+00	 9.187E+00	 4.377E+00	-9.193E-01	-6.592E+00	-9.848E+00	 8.468E+00	-1.153E+00	 1.291E+01	 2.049E+02	 7.703E-03	 2.445E-01	 0.000E+00
  10.650	 1.635E+01	 5.520E-02	-9.316E-03	-3.167E-04	-3.368E+02	 2.699E+01	 2.219E+00	 3.064E+00	-4.974E-02	-3.841E-01	-1.093E+01	 1.968E+01	 1.973E+00	-1.035E+00	 3.830E+00	 8.466E+00	 3.922E+00	-3.102E+00	-9.464E+00	-9.154E+00	 9.684E+00	 6.907E-01	 9.967E+00	 1.955E+02	 1.776E-02	 2.291E-01	 0.000E+00
  10.700	 1.669E+01	 3.421E-02	-9.663E-03	-1.260E-04	-3.349E+02	 2.754E+01	 7.998E-01	 3.000E+00	-2.672E-01	-3.445E-01	-9.574E+00	 3.257E+01	 1.137E+00	-1.437E+00	 4.901E+00	 4.957E+00	 2.312E+00	-4.148E+00	-9.157E+00	-4.883E+00	 6.888E+00	 1.244E+00	 1.395E+01	 1.887E+02	 2.163E-02	 1.455E-01	 0.000E+00
  10.750	 1.691E+01	 1.395E-02	-8.072E-03	-2.307E-05	-3.355E+02	 2.697E+01	 2.925E+00	 2.961E+00	-3.794E-02	 2.444E-02	-8.934E+00	-1.845E+01	 6.771E-01	-1.546E+00	 4.915E+00	 2.684E+00	 2.202E+00	-3.837E+00	-9.264E+00	 1.452E-01	 5.926E+00	-7.418E-01	 2.327E+01	 1.760E+02	 2.030E-02	 8.065E-02	 0.000E+00
  10.800	 1.661E+01	 2.127E-02	-1.170E-02	-5.527E-05	-3.356E+02	 2.456E+01	 2.046E+00	 3.023E+00	 5.279E-01	-7.864E-02	-9.218E+00	 9.452E+00	 6.885E-01	-2.037E+00	 6.870E+00	 3.317E+00	 8.765E-01	-2.888E+00	-9.695E+00	 2.447E+00	 6.523E+00	 4.428E-01	 3.281E+01	 1.569E+02	 2.908E-02	 1.024E-01	 0.000E+00
  10.850	 1.671E+01	 2.073E-02	-1.058E-02	-5.252E-05	-3.342E+02	 2.571E+01	 3.717E-01	 3.004E+00	 5.821E-01	-1.833E-01	-7.497E+00	 4.574E+01	 4.127E-01	-1.911E+00	 6.183E+00	 2.564E+00	-7.755E-01	-3.118E+00	-9.418E+00	 4.354E+00	 6.804E+00	 2.355E+00	 4.414E+01	 1.530E+02	 2.598E-02	 9.051E-02	 0.000E+00
  10.900	 1.654E+01	-1.251E-02	-7.077E-03	-2.740E-05	-3.343E+02	 2.454E+01	 2.250E+00	 3.035E+00	 2.763E-01	 2.674E-01	-6.543E+00	 6.424E+00	-3.535E-01	-1.667E+00	 5.315E+00	-1.421E+00	-6.401E-01	-2.390E+00	-6.025E+00	 7.539E+00	 6.255E+00	 7.426E-01	 6.088E+01	 1.611E+02	 2.135E-02	-1.914E-02	 0.000E+00
  10.950	 1.666E+01	-3.105E-02	-5.013E-03	-1.180E-04	-3.338E+02	 2.203E+01	 1.980E+00	 3.006E+00	-1.161E-02	 5.183E-01	-7.395E+00	-1.974E+01	-8.424E-01	-1.438E+00	 4.667E+00	-3.787E+00	-1.277E+00	-1.028E+00	-2.282E+00	 8.905E+00	 5.800E+00	-2.303E-01	 7.076E+01	 1.720E+02	 1.836E-02	-8.914E-02	 0.000E+00
  11.000	 1.717E+01	-2.012E-02	-4.225E-03	-4.772E-05	-3.332E+02	 1.857E+01	 1.352E+00	 2.916E+00	-3.950E-02	 3.338E-01	-7.802E+00	 3.597E+00	-8.353E-01	-1.016E+00	 3.561E+00	-2.977E+00	-1.717E+00	 5.542E-01	-8.462E-02	 8.066E+00	 4.636E+00	 7.207E-01	 6.688E+01	 1.886E+02	 1.449E-02	-6.366E-02	 0.000E+00
  11.050	 1.731E+01	-1.427E-02	-2.227E-03	-2.397E-05	-3.324E+02	 1.458E+01	 2.086E+00	 2.892E+00	-4.166E-02	 1.378E-01	-6.977E+00	 1.054E+01	-7.224E-01	-4.975E-01	 1.940E+00	-2.331E+00	-1.200E+00	 2.664E+00	 2.352E+00	 7.510E+00	 4.454E+00	 8.938E-01	 5.854E+01	 1.967E+02	 8.189E-03	-4.474E-02	 0.000E+00
  11.100	 1.736E+01	-2.780E-02	 1.302E-03	-8.676E-05	-3.324E+02	 1.333E+01	 8.179E-01	 2.884E+00	-2.399E-01	 2.862E-03	-5.888E+00	 1.956E+01	-1.057E+00	 7.514E-02	 1.489E-01	-3.996E+00	-1.360E+00	 3.659E+00	 5.660E+00	 7.596E+00	 5.934E+00	 1.019E+00	 5.004E+01	 2.050E+02	 5.302E-04	-9.334E-02	 0.000E+00
  11.150	 1.719E+01	-3.772E-02	 3.472E-03	-1.606E-04	-3.338E+02	 1.523E+01	 1.707E+00	 2.914E+00	-4.899E-01	-8.729E-02	-4.998E+00	 1.823E+01	-1.157E+00	 4.443E-01	-8.870E-01	-4.935E+00	-7.143E-04	 3.766E+00	 7.942E+00	 5.181E+00	 6.074E+00	 8.105E-01	 4.056E+01	 2.148E+02	-3.929E-03	-1.274E-01	 0.000E+00
  11.200	 1.744E+01	-2.077E-02	 2.223E-03	-5.224E-05	-3.349E+02	 1.526E+01	 3.698E-01	 2.875E+00	-3.962E-01	-9.076E-02	-5.295E+00	-3.762E+00	-5.867E-01	 5.997E-01	-9.433E-01	-2.277E+00	 5.170E-01	 4.001E+00	 7.804E+00	 1.021E+00	 4.455E+00	-4.184E-01	 3.225E+01	 2.066E+02	-2.894E-03	-5.960E-02	 0.000E+00
  11.250	 1.688E+01	 3.608E-03	 2.274E-03	-1.641E-06	-3.343E+02	 1.495E+01	 5.405E-01	 2.969E+00	-2.055E-03	-2.269E-01	-5.697E+00	-9.325E+00	-7.637E-02	 9.279E-01	-2.034E+00	 6.348E-01	 1.631E+00	 4.734E+00	 6.881E+00	-1.577E+00	 3.688E+00	-5.270E-01	 2.477E+01	 1.990E+02	-6.591E-03	 2.342E-02	 0.000E+00
  11.300	 1.664E+01	 1.166E-02	 2.311E-03	-1.404E-05	-3.342E+02	 1.637E+01	 1.699E+00	 3.014E+00	 1.056E-01	-3.623E-01	-5.199E+00	 1.318E+01	 1.669E-01	 1.067E+00	-2.420E+00	 1.649E+00	 2.973E+00	 4.850E+00	 6.159E+00	-2.949E+00	 3.386E+00	 4.224E-01	 2.096E+01	 1.841E+02	-7.865E-03	 5.122E-02	 0.000E+00
  11.350	 1.634E+01	 1.063E-02	 1.917E-03	-1.150E-05	-3.345E+02	 1.964E+01	 1.172E+00	 3.067E+00	-4.840E-02	-2.291E-01	-4.082E+00	 1.258E+01	 1.921E-01	 9.784E-01	-2.118E+00	 1.541E+00	 3.570E+00	 3.259E+00	 4.866E+00	-4.867E+00	 3.486E+00	 4.022E-01	 3.004E+01	 1.749E+02	-6.637E-03	 4.809E-02	 0.000E+00
  11.400	 1.677E+01	 8.607E-03	 1.543E-03	-6.846E-06	-3.351E+02	 1.938E+01	 1.663E+00	 2.986E+00	-1.378E-01	-6.473E-02	-3.296E+00	 1.503E+01	 2.762E-01	 7.731E-01	-1.659E+00	 1.645E+00	 4.403E+00	 1.703E+00	 3.690E+00	-7.050E+00	 4.462E+00	 8.189E-01	 4.046E+01	 1.652E+02	-5.249E-03	 4.791E-02	 0.000E+00
  11.450	 1.688E+01	 1.594E-02	-1.349E-03	-2.340E-05	-3.355E+02	 1.900E+01	 1.407E+00	 2.965E+00	 1.636E-01	 9.508E-02	-3.024E+00	 4.630E+00	 5.396E-01	 2.907E-01	-4.557E-02	 2.785E+00	 4.456E+00	 7.613E-01	 7.743E-01	-6.507E+00	 3.151E+00	 4.723E-01	 5.258E+01	 1.537E+02	 1.608E-03	 7.803E-02	 0.000E+00
  11.500	 1.738E+01	 2.600E-02	-3.785E-03	-6.695E-05	-3.351E+02	 1.924E+01	 1.607E+00	 2.879E+00	 4.991E-01	 2.524E-01	-3.482E+00	-1.804E+01	 8.629E-01	-1.428E-01	 1.213E+00	 4.249E+00	 4.378E+00	 5.142E-01	-1.844E+00	-5.573E+00	 2.494E+00	-2.577E-01	 6.230E+01	 1.437E+02	 6.848E-03	 1.193E-01	 0.000E+00
  11.550	 1.771E+01	 3.170E-02	-6.433E-03	-1.009E-04	-3.356E+02	 2.182E+01	 1.746E+00	 2.826E+00	 5.599E-01	 2.022E-01	-3.927E+00	-3.036E+00	 1.177E+00	-7.198E-01	 2.871E+00	 5.318E+00	 4.006E+00	 8.786E-02	-3.683E+00	-5.922E+00	 3.600E+00	 5.260E-01	 6.492E+01	 1.441E+02	 1.331E-02	 1.468E-01	 0.000E+00
  11.600	 1.778E+01	 3.377E-02	-9.285E-03	-1.240E-04	-3.347E+02	 2.301E+01	 9.857E-01	 2.814E+00	 1.768E-01	 8.748E-02	-3.231E+00	 2.584E+01	 9.979E-01	-1.299E+00	 4.646E+00	 4.712E+00	 3.014E+00	-1.189E+00	-5.041E+00	-5.347E+00	 3.769E+00	 1.733E+00	 6.666E+01	 1.551E+02	 2.061E-02	 1.393E-01	 0.000E+00
  11.650	 1.778E+01	 1.692E-02	-8.388E-03	-3.234E-05	-3.344E+02	 2.180E+01	 7.810E-01	 2.813E+00	-6.156E-02	 1.729E-01	-2.089E+00	 1.614E+01	 7.753E-01	-1.533E+00	 4.957E+00	 3.080E+00	 2.036E+00	-2.239E+00	-5.840E+00	-2.666E+00	 2.946E+00	 1.115E+00	 6.794E+01	 1.722E+02	 2.075E-02	 9.233E-02	 0.000E+00
  11.700	 1.774E+01	 3.806E-03	-8.865E-03	-8.853E-06	-3.347E+02	 1.605E+01	 2.373E+00	 2.821E+00	-1.731E-01	 2.385E-01	-2.194E+00	-9.776E+00	 4.819E-01	-1.789E+00	 5.825E+00	 1.570E+00	 1.559E+00	-1.587E+00	-5.067E+00	 3.352E-01	 1.675E+00	-7.734E-02	 6.188E+01	 1.894E+02	 2.398E-02	 4.922E-02	 0.000E+00
  11.750	 1.774E+01	 1.442E-02	-1.042E-02	-2.908E-05	-3.341E+02	 1.707E+01	 1.396E+00	 2.822E+00	-9.706E-02	 1.675E-02	-2.102E+00	-1.268E+00	 4.833E-01	-1.945E+00	 6.356E+00	 2.234E+00	 2.332E-01	 1.138E-01	-3.650E+00	 1.407E+00	 5.076E-01	 8.283E-02	 5.190E+01	 1.952E+02	 2.652E-02	 7.214E-02	 0.000E+00
  11.800	 1.797E+01	 1.582E-02	-9.713E-03	-3.323E-05	-3.332E+02	 1.928E+01	 1.630E+00	 2.785E+00	-1.451E-01	-1.232E-01	-1.781E+00	 3.962E+00	 2.649E-01	-1.813E+00	 5.821E+00	 1.731E+00	-6.025E-01	 1.706E-01	-3.501E+00	 2.884E+00	 1.202E+00	 1.539E-01	 4.404E+01	 2.068E+02	 2.427E-02	 6.699E-02	 0.000E+00
  11.850	 1.849E+01	-3.751E-03	-7.732E-03	-8.519E-06	-3.336E+02	 2.158E+01	 1.367E+00	 2.707E+00	-4.278E-01	-1.954E-01	-1.505E+00	 1.483E+01	-1.632E-01	-1.650E+00	 5.331E+00	-5.070E-01	-1.297E+00	-8.550E-01	-3.183E+00	 4.797E+00	 2.339E+00	 4.456E-01	 3.854E+01	 2.098E+02	 2.180E-02	 5.446E-03	 0.000E+00
  11.900	 1.828E+01	-1.820E-02	-5.321E-03	-4.661E-05	-3.342E+02	 1.977E+01	 9.700E-01	 2.738E+00	-5.172E-01	-2.443E-01	-1.006E+00	 2.510E+01	-3.575E-01	-1.347E+00	 4.337E+00	-1.830E+00	-1.780E+00	-8.383E-01	-1.659E+00	 5.323E+00	 2.062E+00	 7.597E-01	 3.590E+01	 2.047E+02	 1.739E-02	-3.942E-02	 0.000E+00
  11.950	 1.847E+01	-9.307E-03	-4.235E-03	-1.478E-05	-3.346E+02	 1.755E+01	 1.551E+00	 2.710E+00	-1.486E-01	-1.825E-01	-1.090E-01	 7.915E+00	-9.235E-02	-9.720E-01	 3.220E+00	-6.158E-01	-1.595E+00	 8.895E-01	 3.958E-01	 3.581E+00	 1.909E-01	 1.660E-01	 3.696E+01	 1.948E+02	 1.310E-02	-1.259E-02	 0.000E+00
  12.000	 1.845E+01	 6.025E-03	-3.856E-03	-4.899E-06	-3.338E+02	 1.760E+01	 1.601E+00	 2.714E+00	 1.957E-01	-7.209E-02	 7.200E-02	-6.730E+00	 1.430E-02	-5.249E-01	 2.124E+00	 5.520E-01	-1.273E+00	 2.120E+00	 1.528E+00	 2.340E+00	-5.965E-01	-2.973E-01	 4.215E+01	 1.771E+02	 9.672E-03	 2.561E-02	 0.000E+00
  12.050	 1.863E+01	-1.225E-03	-2.607E-04	-6.302E-07	-3.331E+02	 1.897E+01	 1.420E+00	 2.687E+00	 2.362E-01	-7.167E-02	 1.287E-01	 1.090E+01	-2.594E-01	 1.522E-01	 3.873E-03	-4.545E-01	-7.466E-01	 1.683E+00	 2.086E+00	 2.662E+00	-5.994E-02	 6.745E-01	 5.126E+01	 1.651E+02	 9.274E-04	-6.679E-04	 0.000E+00
  12.100	 1.868E+01	-1.778E-02	 3.030E-03	-3.851E-05	-3.338E+02	 2.100E+01	 2.570E+00	 2.679E+00	 3.421E-02	-1.730E-02	 1.259E+00	 3.617E+01	-5.433E-01	 6.668E-01	-1.515E+00	-2.185E+00	 6.193E-01	 9.916E-01	 2.740E+00	 2.852E+00	 2.204E-01	 1.865E+00	 5.806E+01	 1.560E+02	-5.576E-03	-5.395E-02	 0.000E+00
  12.150	 1.849E+01	-1.182E-02	 3.326E-03	-1.920E-05	-3.350E+02	 2.252E+01	 2.515E+00	 2.710E+00	 1.656E-01	 2.113E-01	 2.351E+00	 7.749E+00	-2.980E-01	 8.766E-01	-1.993E+00	-1.054E+00	 1.715E+00	 1.138E+00	 2.498E+00	 8.445E-01	-8.498E-01	 8.559E-01	 6.757E+01	 1.502E+02	-7.199E-03	-2.885E-02	 0.000E+00
  12.200	 1.843E+01	 8.149E-03	 1.580E-03	-6.720E-06	-3.341E+02	 2.128E+01	 1.420E+00	 2.721E+00	 5.339E-01	 2.849E-01	 2.132E+00	-7.987E+00	 7.233E-02	 9.178E-01	-1.829E+00	 1.186E+00	 2.280E+00	 2.185E+00	 2.124E+00	-5.072E-01	-1.166E+00	 1.359E-01	 7.125E+01	 1.478E+02	-5.382E-03	 3.746E-02	 0.000E+00
  12.250	 1.827E+01	 9.678E-03	 2.705E-03	-9.895E-06	-3.329E+02	 2.155E+01	 3.377E+00	 2.750E+00	 4.878E-01	 8.626E-02	 2.625E+00	 2.081E+01	 1.344E-01	 1.078E+00	-2.562E+00	 1.345E+00	 4.014E+00	 2.840E+00	 1.876E+00	 1.152E-01	-1.987E+00	 1.450E+00	 6.713E+01	 1.535E+02	-8.666E-03	 4.266E-02	 0.000E+00
  12.300	 1.820E+01	 4.388E-04	 2.071E-03	-5.247E-07	-3.337E+02	 2.270E+01	 1.812E+00	 2.767E+00	-4.565E-02	 1.994E-01	 3.709E+00	 1.125E+01	-7.852E-02	 8.656E-01	-1.756E+00	 1.641E-01	 3.981E+00	 1.341E+00	 1.047E+00	-1.641E-01	-2.624E+00	 9.523E-01	 6.801E+01	 1.711E+02	-5.581E-03	 1.235E-02	 0.000E+00
  12.350	 1.805E+01	-6.539E-03	 1.935E-03	-7.580E-06	-3.338E+02	 2.229E+01	 9.756E-01	 2.782E+00	-4.507E-01	 2.927E-01	 3.624E+00	-7.294E+00	-1.103E-01	 6.618E-01	-1.297E+00	-3.319E-01	 4.163E+00	-1.098E-01	 4.497E-01	-1.587E+00	-1.722E+00	-7.663E-03	 6.097E+01	 1.872E+02	-4.113E-03	-4.595E-03	 0.000E+00
  12.400	 1.779E+01	-3.142E-03	-1.131E-04	-3.790E-06	-3.345E+02	 2.045E+01	 2.488E+00	 2.820E+00	-3.737E-01	-5.602E-02	 3.863E+00	 1.909E+01	 1.546E-01	 1.897E-01	 7.288E-02	 5.158E-01	 5.076E+00	 1.087E+00	 6.808E-01	-2.060E+00	-1.434E+00	 9.123E-01	 4.561E+01	 1.924E+02	 1.035E-03	 1.335E-02	 0.000E+00
  12.450	 1.775E+01	 6.675E-03	-3.972E-03	-5.195E-06	-3.335E+02	 1.687E+01	 8.532E-01	 2.826E+00	-8.469E-02	-2.700E-01	 4.861E+00	 1.489E+01	 2.467E-01	-3.970E-01	 2.113E+00	 1.289E+00	 3.917E+00	 2.588E+00	 5.739E-01	-7.954E-02	-3.508E+00	 6.782E-01	 3.565E+01	 1.923E+02	 1.006E-02	 4.258E-02	 0.000E+00
  12.500	 1.763E+01	 4.123E-03	-3.663E-03	-2.910E-06	-3.332E+02	 1.509E+01	 1.629E+00	 2.845E+00	 6.571E-03	-1.198E-01	 4.876E+00	-1.364E+01	 2.518E-01	-6.164E-01	 2.248E+00	 1.118E+00	 3.679E+00	 2.182E+00	-1.789E-01	 7.664E-01	-3.789E+00	-7.835E-01	 2.926E+01	 1.907E+02	 9.637E-03	 3.816E-02	 0.000E+00
  12.550	 1.733E+01	-4.640E-03	-6.026E-03	-8.352E-06	-3.345E+02	 1.697E+01	 1.261E+00	 2.897E+00	-3.304E-01	-2.277E-01	 4.744E+00	 1.176E+01	 2.009E-02	-1.226E+00	 4.227E+00	-1.283E-01	 2.812E+00	 8.231E-01	-2.593E-02	-4.192E-01	-3.213E+00	 4.031E-01	 2.651E+01	 1.867E+02	 1.733E-02	 7.334E-03	 0.000E+00
  12.600	 1.718E+01	-7.230E-03	-7.698E-03	-1.471E-05	-3.340E+02	 1.525E+01	-4.113E-02	 2.917E+00	-3.553E-01	-2.676E-01	 5.946E+00	 2.572E+01	-7.508E-02	-1.627E+00	 5.420E+00	-5.420E-01	 1.246E+00	 4.197E-01	 5.504E-01	-8.069E-01	-3.801E+00	 1.067E+00	 2.827E+01	 1.771E+02	 2.226E-02	-1.726E-03	 0.000E+00
  12.650	 1.694E+01	-3.827E-03	-7.792E-03	-9.274E-06	-3.344E+02	 1.617E+01	 2.021E+00	 2.960E+00	 4.389E-02	 1.246E-03	 6.134E+00	-1.416E+01	-4.995E-02	-1.694E+00	 5.435E+00	-1.366E-01	 1.027E+00	 1.120E+00	 3.781E-01	 3.665E-01	-3.626E+00	-4.843E-01	 3.409E+01	 1.633E+02	 2.202E-02	 9.587E-03	 0.000E+00
  12.700	 1.667E+01	 1.231E-02	-1.047E-02	-2.324E-05	-3.349E+02	 1.449E+01	 1.157E+00	 3.011E+00	 4.383E-01	-3.753E-02	 5.483E+00	 2.233E+00	 2.262E-01	-1.945E+00	 6.440E+00	 1.595E+00	-2.921E-01	 1.481E+00	-3.520E-01	-7.389E-02	-3.145E+00	 2.975E-01	 3.956E+01	 1.432E+02	 2.691E-02	 6.037E-02	 0.000E+00
  12.750	 1.626E+01	 1.685E-02	-9.838E-03	-3.637E-05	-3.340E+02	 1.409E+01	 2.916E-01	 3.083E+00	 4.095E-01	-5.431E-03	 6.144E+00	 1.288E+01	 2.632E-01	-1.778E+00	 5.802E+00	 1.941E+00	-1.384E+00	 1.182E+00	 6.411E-01	-1.808E+00	-5.107E+00	 9.791E-01	 4.723E+01	 1.424E+02	 2.449E-02	 7.301E-02	 0.000E+00
  12.800	 1.607E+01	 5.376E-03	-7.625E-03	-7.760E-06	-3.348E+02	 1.693E+01	 2.355E+00	 3.118E+00	 2.058E-01	 3.702E-01	 6.195E+00	-2.426E+01	 1.938E-01	-1.538E+00	 4.913E+00	 1.010E+00	-1.039E+00	 1.018E+00	 1.683E+00	-2.466E+00	-6.223E+00	-5.763E-01	 5.425E+01	 1.451E+02	 2.022E-02	 4.090E-02	 0.000E+00
  12.850	 1.587E+01	 1.085E-02	-7.641E-03	-1.675E-05	-3.345E+02	 1.988E+01	 9.752E-01	 3.160E+00	 9.407E-02	 2.574E-01	 5.381E+00	 9.844E-01	 1.482E-01	-1.264E+00	 4.443E+00	 1.258E+00	-1.916E+00	-1.360E-01	-1.430E-01	-1.492E+00	-4.861E+00	 3.621E-01	 5.442E+01	 1.482E+02	 1.935E-02	 4.892E-02	 0.000E+00
  12.900	 1.598E+01	 1.512E-02	-3.934E-03	-2.399E-05	-3.342E+02	 2.126E+01	 1.755E+00	 3.134E+00	 9.770E-02	-8.580E-03	 6.162E+00	 2.589E+01	 3.109E-01	-5.484E-01	 1.901E+00	 1.963E+00	-1.389E+00	-5.515E-01	-1.503E+00	-7.272E-01	-4.457E+00	 1.586E+00	 4.851E+01	 1.568E+02	 8.636E-03	 6.370E-02	 0.000E+00
  12.950	 1.636E+01	 7.170E-03	-2.847E-03	-5.323E-06	-3.352E+02	 2.255E+01	 2.212E+00	 3.068E+00	-2.984E-02	 1.813E-01	 6.429E+00	-1.035E+01	 7.432E-02	-2.655E-01	 1.392E+00	 1.050E+00	-6.957E-01	 3.301E-01	 1.208E-02	-2.900E-01	-3.542E+00	-1.676E-01	 4.365E+01	 1.645E+02	 6.893E-03	 4.149E-02	 0.000E+00
  13.000	 1.662E+01	 4.408E-03	-1.011E-03	-2.267E-06	-3.343E+02	 2.232E+01	 9.467E-01	 3.024E+00	-9.947E-03	 5.992E-02	 5.654E+00	-1.305E+01	 1.464E-01	 1.378E-01	 2.067E-01	 1.105E+00	-6.721E-01	 5.291E-01	 4.528E-01	-1.375E-01	-3.146E+00	-4.413E-01	 3.416E+01	 1.729E+02	 2.334E-03	 3.534E-02	 0.000E+00
  13.050	 1.671E+01	 1.227E-02	 1.135E-03	-1.466E-05	-3.345E+02	 2.376E+01	 2.785E+00	 3.010E+00	-1.649E-01	-2.355E-01	 6.312E+00	 2.137E+01	 3.183E-01	 6.908E-01	-1.538E+00	 2.024E+00	 1.132E+00	-6.632E-01	-2.343E+00	 6.599E-02	-5.629E+00	 9.358E-01	 2.275E+01	 1.830E+02	-4.713E-03	 5.686E-02	 0.000E+00
  13.100	 1.665E+01	 2.437E-02	 1.496E-05	-6.379E-05	-3.350E+02	 2.727E+01	 1.446E+00	 3.028E+00	-2.600E-01	-8.202E-02	 7.072E+00	-7.263E+00	 4.317E-01	 7.837E-01	-1.445E+00	 3.027E+00	 1.585E+00	-1.898E+00	-5.044E+00	-2.599E-01	-8.313E+00	-4.801E-01	 2.113E+01	 1.926E+02	-3.513E-03	 9.071E-02	 0.000E+00
  13.150	 1.651E+01	 1.468E-02	 1.578E-03	-2.188E-05	-3.337E+02	 2.558E+01	 8.934E-01	 3.049E+00	-1.885E-01	-1.221E-01	 6.207E+00	-5.717E+00	 2.214E-01	 9.882E-01	-2.116E+00	 1.876E+00	 2.375E+00	-8.546E-01	-3.159E+00	 7.144E-01	-6.546E+00	-5.749E-01	 1.748E+01	 1.893E+02	-6.305E-03	 6.189E-02	 0.000E+00
  13.200	 1.676E+01	-5.730E-03	 3.958E-03	-7.969E-06	-3.342E+02	 2.381E+01	 3.679E+00	 3.003E+00	-1.237E-01	-3.968E-01	 6.892E+00	 3.317E+01	-4.458E-02	 1.083E+00	-2.655E+00	-2.996E-02	 4.452E+00	 1.356E+00	 2.529E-01	 1.422E+00	-4.170E+00	 1.509E+00	 1.485E+01	 1.824E+02	-9.707E-03	 1.040E-03	 0.000E+00
  13.250	 1.663E+01	-4.253E-03	 1.770E-03	-4.418E-06	-3.345E+02	 2.255E+01	 1.320E+00	 3.030E+00	-1.256E-01	-8.596E-02	 8.395E+00	 4.168E+00	-7.440E-02	 7.516E-01	-1.343E+00	 4.470E-02	 3.866E+00	 9.348E-01	-2.807E-03	 5.282E-01	-3.804E+00	 3.410E-01	 2.435E+01	 1.766E+02	-3.986E-03	 4.363E-03	 0.000E+00
  13.300	 1.654E+01	-2.963E-03	 1.354E-03	-2.207E-06	-3.338E+02	 1.977E+01	 8.840E-01	 3.052E+00	 3.003E-04	 3.402E-01	 7.080E+00	-4.951E+01	-1.481E-01	 5.960E-01	-1.060E+00	-1.531E-01	 4.193E+00	-4.609E-01	-2.041E+00	 1.732E+00	-5.413E+00	-1.952E+00	 3.373E+01	 1.693E+02	-3.103E-03	 3.190E-03	 0.000E+00
  13.350	 1.675E+01	-2.028E-02	 1.357E-03	-5.417E-05	-3.346E+02	 1.915E+01	 2.093E+00	 3.014E+00	 1.014E-01	 1.815E-01	 5.158E+00	-1.222E+01	-3.533E-01	 1.660E-01	-7.340E-02	-1.850E+00	 4.838E+00	 1.166E+00	 1.577E-01	 3.484E+00	-6.811E+00	-3.428E-01	 3.498E+01	 1.622E+02	-4.896E-04	-4.743E-02	 0.000E+00
  13.400	 1.672E+01	-2.196E-02	-2.508E-03	-6.283E-05	-3.348E+02	 1.708E+01	 8.780E-01	 3.031E+00	 2.349E-01	-1.645E-01	 6.039E+00	 4.374E+01	-4.255E-01	-6.177E-01	 2.535E+00	-2.082E+00	 3.867E+00	 3.576E+00	 3.436E+00	 2.866E+00	-7.466E+00	 2.152E+00	 3.331E+01	 1.564E+02	 1.030E-02	-5.136E-02	 0.000E+00
  13.450	 1.660E+01	-3.534E-03	-5.493E-03	-5.545E-06	-3.334E+02	 1.415E+01	 7.500E-01	 3.054E+00	 3.285E-01	 4.707E-02	 7.410E+00	 7.922E+00	-1.782E-01	-9.899E-01	 3.670E+00	-4.045E-01	 3.141E+00	 2.848E+00	 1.993E+00	 1.221E+00	-5.608E+00	 6.395E-01	 3.426E+01	 1.524E+02	 1.562E-02	 1.354E-03	 0.000E+00
  13.500	 1.668E+01	 2.438E-03	-6.242E-03	-3.368E-06	-3.333E+02	 1.422E+01	 1.379E+00	 3.038E+00	 2.377E-01	 2.546E-01	 6.993E+00	-2.242E+01	-2.056E-02	-1.209E+00	 4.063E+00	 2.569E-01	 2.534E+00	 1.320E+00	-1.015E-01	 5.311E-01	-3.474E+00	-5.771E-01	 3.582E+01	 1.552E+02	 1.679E-02	 2.272E-02	 0.000E+00
  13.550	 1.693E+01	-2.851E-03	-8.145E-03	-8.652E-06	-3.341E+02	 1.480E+01	 1.058E+00	 2.997E+00	 6.185E-03	 1.229E-01	 6.351E+00	-5.198E+00	-7.565E-02	-1.653E+00	 5.542E+00	-1.251E-01	 1.407E+00	 1.377E+00	 7.707E-01	 2.804E-02	-4.161E+00	 9.565E-02	 3.135E+01	 1.665E+02	 2.285E-02	 1.404E-02	 0.000E+00
  13.600	 1.675E+01	-5.633E-04	-8.979E-03	-8.014E-06	-3.341E+02	 1.192E+01	 7.166E-01	 3.029E+00	-1.496E-01	-4.593E-03	 6.483E+00	 5.875E+00	-5.609E-02	-1.829E+00	 5.999E+00	 9.700E-02	 2.238E-01	 2.366E+00	 2.866E+00	-1.069E+00	-6.375E+00	 4.480E-01	 2.434E+01	 1.787E+02	 2.477E-02	 2.015E-02	 0.000E+00
  13.650	 1.701E+01	 8.224E-03	-9.256E-03	-1.299E-05	-3.346E+02	 1.535E+01	 1.362E+00	 2.993E+00	-1.445E-01	-5.066E-02	 6.540E+00	 5.494E+00	 1.298E-01	-1.822E+00	 5.866E+00	 1.126E+00	-3.653E-01	 2.270E+00	 2.103E+00	-1.572E+00	-5.952E+00	 1.989E-01	 1.841E+01	 1.836E+02	 2.421E-02	 4.780E-02	 0.000E+00
  13.700	 1.682E+01	 1.695E-02	-1.021E-02	-3.708E-05	-3.345E+02	 1.620E+01	 7.885E-01	 3.019E+00	-1.487E-01	-2.052E-01	 6.786E+00	 1.588E+01	 2.915E-01	-1.793E+00	 5.996E+00	 2.066E+00	-1.354E+00	 1.442E+00	 8.994E-01	-2.095E+00	-5.595E+00	 6.804E-01	 1.141E+01	 1.873E+02	 2.551E-02	 7.572E-02	 0.000E+00
  13.750	 1.723E+01	 1.571E-02	-7.760E-03	-2.958E-05	-3.343E+02	 1.671E+01	 1.198E+00	 2.939E+00	-2.329E-01	-1.558E-01	 7.228E+00	 7.101E+00	 3.185E-01	-1.389E+00	 4.484E+00	 2.025E+00	-1.647E+00	 7.113E-01	 4.515E-01	-2.234E+00	-5.619E+00	 3.370E-01	 1.041E+01	 1.872E+02	 1.902E-02	 7.108E-02	 0.000E+00
  13.800	 1.715E+01	 1.372E-02	-6.650E-03	-2.161E-05	-3.352E+02	 1.962E+01	 1.307E+00	 2.956E+00	-1.508E-01	-1.346E-02	 7.266E+00	-1.311E+01	 3.707E-01	-1.113E+00	 3.796E+00	 2.073E+00	-1.612E+00	 6.866E-01	 4.222E-01	-2.106E+00	-5.447E+00	-5.370E-01	 1.086E+01	 1.835E+02	 1.633E-02	 6.735E-02	 0.000E+00
  13.850	 1.700E+01	 2.125E-02	-5.928E-03	-4.896E-05	-3.345E+02	 1.997E+01	 2.007E+00	 2.984E+00	 5.180E-02	 4.985E-02	 6.460E+00	-2.565E+01	 4.210E-01	-7.412E-01	 2.855E+00	 2.813E+00	-1.178E+00	 9.883E-01	 1.199E-01	-2.040E+00	-5.183E+00	-9.518E-01	 1.076E+01	 1.766E+02	 1.321E-02	 8.841E-02	 0.000E+00
  13.900	 1.733E+01	 2.083E-02	-2.669E-03	-4.566E-05	-3.340E+02	 2.264E+01	 1.173E+00	 2.932E+00	 5.453E-02	-4.244E-02	 6.120E+00	 3.704E+00	 4.398E-01	-9.115E-02	 7.176E-01	 2.694E+00	-1.147E+00	-4.344E-01	-1.514E+00	-1.532E+00	-5.499E+00	 2.520E-01	 1.402E+01	 1.699E+02	 4.350E-03	 8.226E-02	 0.000E+00
  13.950	 1.692E+01	 1.442E-02	-1.509E-03	-2.051E-05	-3.352E+02	 2.677E+01	 2.105E+00	 3.005E+00	-9.307E-02	 7.559E-03	 6.277E+00	 5.676E+00	 4.461E-01	 2.126E-01	 1.354E-01	 2.389E+00	 1.704E-01	-2.009E+00	-3.265E+00	-1.835E+00	-7.027E+00	 1.552E-01	 1.464E+01	 1.677E+02	 2.232E-03	 6.964E-02	 0.000E+00
  14.000	 1.700E+01	 1.410E-02	-3.785E-04	-1.990E-05	-3.341E+02	 2.602E+01	 1.631E+00	 2.992E+00	-1.198E-03	 1.102E-01	 5.400E+00	-1.712E+01	 2.637E-01	 5.463E-01	-7.592E-01	 1.937E+00	 9.722E-01	-1.908E+00	-3.135E+00	-1.201E+00	-6.594E+00	-5.907E-01	 1.592E+01	 1.608E+02	-8.818E-04	 6.119E-02	 0.000E+00
  14.050	 1.702E+01	 1.561E-03	 3.674E-03	-2.369E-06	-3.338E+02	 2.353E+01	 1.663E+00	 2.994E+00	 2.745E-01	-4.014E-02	 5.205E+00	 1.200E+01	 9.716E-02	 1.062E+00	-2.755E+00	 7.815E-01	 1.865E+00	-2.721E-01	-1.079E+00	 6.487E-01	-4.539E+00	 6.270E-01	 1.451E+01	 1.527E+02	-1.003E-02	 2.302E-02	 0.000E+00
  14.100	 1.722E+01	-4.230E-03	 3.244E-03	-5.484E-06	-3.347E+02	 2.405E+01	 4.038E+00	 2.955E+00	 3.217E-01	-1.853E-01	 6.739E+00	 2.832E+01	-5.477E-03	 1.010E+00	-2.281E+00	 1.964E-01	 3.946E+00	 9.108E-01	-4.623E-01	 1.593E+00	-4.489E+00	 1.501E+00	 1.061E+01	 1.526E+02	-7.999E-03	 4.701E-03	 0.000E+00
  14.150	 1.736E+01	 5.730E-03	 1.568E-03	-3.241E-06	-3.339E+02	 2.310E+01	 7.683E-01	 2.927E+00	 1.785E-01	 1.907E-01	 7.123E+00	-2.185E+01	 2.864E-02	 8.839E-01	-1.710E+00	 9.006E-01	 3.256E+00	 5.931E-02	-1.793E+00	 8.860E-01	-5.171E+00	-7.627E-01	 1.817E+01	 1.581E+02	-4.981E-03	 3.057E-02	 0.000E+00
  14.200	 1.691E+01	-6.696E-03	 3.376E-03	-7.241E-06	-3.341E+02	 2.120E+01	 1.118E+00	 2.998E+00	-1.402E-01	 2.853E-01	 5.532E+00	-3.024E+01	-2.589E-01	 8.881E-01	-2.169E+00	-7.477E-01	 3.982E+00	-8.813E-01	-1.926E+00	 1.784E+00	-5.757E+00	-1.152E+00	 1.758E+01	 1.687E+02	-8.096E-03	-1.262E-02	 0.000E+00
  14.250	 1.664E+01	-2.552E-02	 1.988E-03	-8.130E-05	-3.346E+02	 1.922E+01	 2.109E+00	 3.038E+00	-1.865E-01	-2.581E-02	 4.767E+00	 7.124E+00	-4.453E-01	 3.618E-01	-4.208E-01	-2.476E+00	 4.757E+00	 4.321E-01	-8.893E-02	 3.609E+00	-6.920E+00	 3.542E-01	 9.471E+00	 1.762E+02	-1.460E-03	-6.687E-02	 0.000E+00
  14.300	 1.675E+01	-1.722E-02	-1.335E-04	-3.864E-05	-3.341E+02	 1.693E+01	 1.168E+00	 3.027E+00	 2.476E-02	-1.060E-01	 5.127E+00	 9.208E+00	-2.443E-01	-6.985E-02	 7.246E-01	-1.428E+00	 4.157E+00	 2.149E+00	 1.068E+00	 3.150E+00	-6.610E+00	 3.814E-01	 4.783E+00	 1.779E+02	 3.085E-03	-3.996E-02	 0.000E+00
  14.350	 1.695E+01	-1.960E-03	-3.313E-03	-2.777E-06	-3.344E+02	 1.683E+01	 1.540E+00	 2.983E+00	 5.113E-02	-6.423E-02	 5.371E+00	-8.701E+00	 5.904E-02	-5.459E-01	 2.236E+00	 2.601E-01	 3.876E+00	 2.026E+00	 2.966E-01	 8.484E-01	-4.214E+00	-2.254E-01	-4.925E-01	 1.781E+02	 9.519E-03	 1.258E-02	 0.000E+00
  14.400	 1.687E+01	 2.534E-03	-6.029E-03	-3.419E-06	-3.336E+02	 1.760E+01	 9.457E-01	 2.988E+00	-1.059E-01	-2.012E-01	 5.573E+00	 1.607E+01	 1.178E-01	-1.066E+00	 3.824E+00	 6.139E-01	 3.015E+00	 1.197E+00	-9.818E-02	-8.544E-01	-2.785E+00	 7.352E-01	-1.514E+00	 1.811E+02	 1.626E-02	 2.848E-02	 0.000E+00
  14.450	 1.658E+01	-6.493E-03	-6.425E-03	-9.437E-06	-3.335E+02	 1.447E+01	 5.708E-01	 3.045E+00	-2.936E-01	-8.133E-02	 6.394E+00	 5.726E+00	-3.005E-01	-1.355E+00	 4.538E+00	-1.069E+00	 1.970E+00	 1.700E+00	 1.931E+00	 4.581E-01	-5.343E+00	 2.337E-01	 2.153E+00	 1.848E+02	 1.857E-02	-1.005E-02	 0.000E+00
  14.500	 1.641E+01	-1.706E-02	-6.119E-03	-4.287E-05	-3.341E+02	 9.807E+00	 2.691E+00	 3.076E+00	-2.042E-01	 1.861E-01	 5.548E+00	-3.073E+01	-3.568E-01	-1.540E+00	 4.895E+00	-1.731E+00	 1.685E+00	 3.203E+00	 4.289E+00	 1.095E+00	-7.559E+00	-1.327E+00	 4.020E+00	 1.821E+02	 1.941E-02	-3.442E-02	 0.000E+00
  14.550	 1.600E+01	 3.237E-03	-9.584E-03	-9.569E-06	-3.353E+02	 1.181E+01	 1.288E+00	 3.146E+00	 8.763E-02	 2.724E-02	 4.523E+00	-6.561E-01	-2.467E-03	-1.877E+00	 6.239E+00	 5.147E-01	 3.039E-01	 3.746E+00	 4.312E+00	-1.437E+00	-7.850E+00	-1.056E-01	 4.486E+00	 1.755E+02	 2.582E-02	 2.977E-02	 0.000E+00
  14.600	 1.582E+01	 1.877E-02	-1.012E-02	-4.594E-05	-3.337E+02	 1.320E+01	 1.345E-01	 3.183E+00	 1.306E-01	-8.417E-02	 5.269E+00	 1.317E+01	 2.065E-01	-1.823E+00	 5.915E+00	 1.915E+00	-1.134E+00	 2.179E+00	 2.245E+00	-2.583E+00	-6.687E+00	 7.579E-01	 3.140E+00	 1.636E+02	 2.493E-02	 7.431E-02	 0.000E+00
  14.650	 1.584E+01	 3.165E-03	-7.323E-03	-5.980E-06	-3.340E+02	 1.900E+01	 2.041E+00	 3.175E+00	 9.971E-03	 1.001E-01	 5.352E+00	-1.096E+01	-1.284E-01	-1.543E+00	 4.822E+00	 4.504E-02	-9.333E-01	 2.629E-01	 6.359E-01	-5.050E-01	-4.029E+00	-3.018E-01	 5.470E+00	 1.594E+02	 1.960E-02	 2.211E-02	 0.000E+00
  14.700	 1.549E+01	-4.724E-03	-6.882E-03	-7.883E-06	-3.350E+02	 2.043E+01	 1.075E+00	 3.242E+00	 7.546E-03	 3.596E-02	 4.781E+00	-1.585E+00	-2.581E-01	-1.385E+00	 4.702E+00	-6.074E-01	-1.786E+00	-6.236E-01	-1.822E-01	 7.253E-01	-2.652E+00	 3.150E-02	 5.827E+00	 1.510E+02	 1.960E-02	 2.509E-04	 0.000E+00
  14.750	 1.531E+01	 1.304E-02	-5.768E-03	-1.837E-05	-3.348E+02	 1.928E+01	 1.521E+00	 3.284E+00	 2.063E-01	-2.963E-02	 5.034E+00	 6.420E+00	 3.021E-01	-9.125E-01	 3.196E+00	 2.113E+00	-1.606E+00	-8.136E-02	-5.631E-01	-1.837E+00	-5.268E+00	 4.462E-01	 1.822E+00	 1.484E+02	 1.404E-02	 6.677E-02	 0.000E+00
  14.800	 1.505E+01	 3.079E-02	-6.112E-03	-9.946E-05	-3.347E+02	 2.013E+01	 2.229E+00	 3.348E+00	 3.383E-01	 1.587E-01	 4.857E+00	-2.053E+01	 6.971E-01	-6.181E-01	 2.573E+00	 4.214E+00	-1.033E+00	 5.194E-01	-1.051E+00	-3.888E+00	-7.175E+00	-8.774E-01	 1.976E+00	 1.529E+02	 1.238E-02	 1.268E-01	 0.000E+00
  14.850	 1.529E+01	 2.495E-02	-3.778E-03	-6.603E-05	-3.332E+02	 2.200E+01	 8.097E-01	 3.295E+00	 1.119E-01	 5.970E-02	 4.015E+00	-6.425E+00	 4.977E-01	-1.338E-01	 1.152E+00	 3.145E+00	-1.231E+00	-8.606E-01	-2.034E+00	-2.538E+00	-6.584E+00	-4.379E-01	-1.207E+00	 1.567E+02	 6.787E-03	 9.816E-02	 0.000E+00
  14.900	 1.533E+01	 6.640E-03	 4.353E-04	-3.428E-06	-3.339E+02	 2.509E+01	 2.379E+00	 3.288E+00	-1.760E-01	-1.614E-01	 4.236E+00	 1.961E+01	 1.616E-01	 4.597E-01	-8.125E-01	 1.147E+00	 4.995E-01	-2.089E+00	-2.793E+00	-6.728E-01	-6.087E+00	 7.193E-01	-7.085E+00	 1.673E+02	-1.993E-03	 3.705E-02	 0.000E+00
  14.950	 1.536E+01	 1.865E-03	 1.511E-03	-6.524E-07	-3.348E+02	 2.401E+01	 1.685E+00	 3.282E+00	-1.709E-01	-1.072E-01	 4.439E+00	-7.182E-01	 3.138E-02	 7.222E-01	-1.415E+00	 5.830E-01	 1.247E+00	-8.999E-01	-1.227E+00	-1.700E-01	-4.545E+00	-3.148E-02	-8.415E+00	 1.692E+02	-4.234E-03	 1.986E-02	 0.000E+00
  15.000	 1.594E+01	 3.931E-03	 2.679E-03	-1.901E-06	-3.342E+02	 2.225E+01	 1.517E+00	 3.176E+00	 8.219E-02	-9.704E-02	 4.379E+00	 1.352E+00	 1.226E-01	 9.908E-01	-2.293E+00	 1.028E+00	 2.111E+00	 9.457E-01	 3.779E-01	-6.996E-02	-2.992E+00	 1.157E-02	-1.007E+01	 1.698E+02	-7.678E-03	 3.002E-02	 0.000E+00
  15.050	 1.598E+01	 5.962E-03	 2.962E-03	-3.654E-06	-3.344E+02	 2.164E+01	 2.953E+00	 3.167E+00	 8.448E-02	-1.429E-01	 5.144E+00	 1.167E+01	 7.452E-02	 1.075E+00	-2.542E+00	 1.023E+00	 3.674E+00	 1.186E+00	-4.433E-01	 9.166E-01	-4.272E+00	 6.738E-01	-9.219E+00	 1.743E+02	-8.798E-03	 3.216E-02	 0.000E+00
  15.100	 1.596E+01	 3.476E-03	 1.809E-03	-1.630E-06	-3.342E+02	 2.252E+01	 4.720E-01	 3.170E+00	-1.671E-01	 1.423E-01	 5.077E+00	-1.753E+01	-9.105E-02	 8.853E-01	-1.753E+00	 4.133E-01	 3.249E+00	-6.007E-01	-2.807E+00	 2.348E+00	-6.837E+00	-8.615E-01	-1.757E+00	 1.836E+02	-5.327E-03	 2.124E-02	 0.000E+00
  15.150	 1.591E+01	-1.127E-02	 3.090E-03	-1.896E-05	-3.342E+02	 2.042E+01	 1.591E+00	 3.190E+00	-2.559E-01	 1.741E-01	 3.571E+00	-2.345E+01	-2.270E-01	 7.799E-01	-1.793E+00	-9.121E-01	 4.440E+00	-3.757E-01	-1.881E+00	 2.865E+00	-6.655E+00	-9.584E-01	-9.210E-01	 1.833E+02	-6.568E-03	-2.070E-02	 0.000E+00
  15.200	 1.555E+01	-1.583E-02	 9.307E-04	-3.588E-05	-3.352E+02	 1.950E+01	 2.175E+00	 3.253E+00	-1.298E-01	-8.869E-02	 3.358E+00	 2.398E+01	-1.493E-01	 2.096E-01	-3.516E-02	-9.900E-01	 4.680E+00	 1.635E+00	 7.861E-01	 1.521E+00	-4.804E+00	 9.423E-01	-5.160E+00	 1.810E+02	 6.673E-05	-2.815E-02	 0.000E+00
  15.250	 1.558E+01	-1.124E-03	-2.556E-03	-1.519E-06	-3.336E+02	 1.632E+01	 7.429E-01	 3.225E+00	 1.122E-01	-4.544E-03	 3.732E+00	-4.553E+00	 8.913E-03	-2.405E-01	 1.507E+00	 2.216E-01	 3.812E+00	 2.079E+00	 3.830E-01	 1.033E+00	-4.382E+00	 6.872E-02	-3.436E+00	 1.742E+02	 7.288E-03	 1.126E-02	 0.000E+00
  15.300	 1.564E+01	 3.752E-03	-3.098E-03	-2.449E-06	-3.345E+02	 1.739E+01	 1.975E+00	 3.214E+00	 1.066E-01	 1.090E-01	 3.282E+00	-1.172E+01	 1.624E-01	-5.269E-01	 1.938E+00	 8.982E-01	 4.026E+00	 1.307E+00	-7.073E-01	-1.815E-01	-2.756E+00	-5.364E-01	-5.579E+00	 1.675E+02	 8.106E-03	 3.249E-02	 0.000E+00
  15.350	 1.541E+01	 3.390E-03	-7.833E-03	-6.240E-06	-3.343E+02	 1.972E+01	 7.880E-01	 3.274E+00	 6.838E-02	-1.201E-01	 3.737E+00	 8.957E+00	 6.978E-02	-1.306E+00	 4.880E+00	 6.753E-01	 2.774E+00	 1.310E+00	-1.883E-01	-8.208E-01	-2.812E+00	 7.514E-01	-9.497E+00	 1.699E+02	 2.109E-02	 3.515E-02	 0.000E+00
  15.400	 1.541E+01	-1.122E-03	-6.495E-03	-4.380E-06	-3.332E+02	 1.655E+01	 1.100E+00	 3.261E+00	-3.728E-02	-2.899E-03	 4.491E+00	 6.597E+00	-2.007E-01	-1.371E+00	 4.396E+00	-3.499E-01	 2.016E+00	 2.512E+00	 2.106E+00	 3.932E-01	-5.433E+00	 1.052E-01	-6.606E+00	 1.703E+02	 1.800E-02	 9.893E-03	 0.000E+00
  15.450	 1.564E+01	-8.846E-03	-7.066E-03	-1.585E-05	-3.342E+02	 1.714E+01	 2.345E+00	 3.208E+00	-5.616E-02	 2.101E-01	 3.326E+00	-3.904E+01	-2.490E-01	-1.609E+00	 5.167E+00	-9.958E-01	 1.330E+00	 2.704E+00	 2.820E+00	 1.037E+00	-5.963E+00	-1.557E+00	-7.210E+00	 1.716E+02	 2.073E-02	-1.190E-02	 0.000E+00
  15.500	 1.551E+01	 2.077E-03	-9.019E-03	-7.753E-06	-3.344E+02	 1.919E+01	 1.692E+00	 3.235E+00	-2.675E-02	 4.682E-04	 1.926E+00	-4.119E-01	-1.346E-01	-1.818E+00	 5.919E+00	 1.275E-01	 3.222E-01	 1.193E+00	 8.275E-01	-2.100E-01	-4.137E+00	-2.168E-01	-1.126E+01	 1.690E+02	 2.442E-02	 2.249E-02	 0.000E+00
  15.550	 1.575E+01	 1.264E-02	-9.418E-03	-2.362E-05	-3.344E+02	 1.733E+01	 3.369E-01	 3.187E+00	 8.032E-02	-2.206E-01	 2.557E+00	 1.769E+01	 3.732E-02	-1.757E+00	 5.731E+00	 1.283E+00	-1.154E+00	 4.199E-01	-2.122E-01	-7.736E-01	-3.702E+00	 8.516E-01	-1.636E+01	 1.668E+02	 2.396E-02	 5.844E-02	 0.000E+00
  15.600	 1.583E+01	 1.122E-02	-8.914E-03	-1.847E-05	-3.339E+02	 1.671E+01	 1.950E+00	 3.173E+00	 1.514E-01	-3.279E-02	 3.104E+00	-2.830E+00	 8.074E-02	-1.620E+00	 5.396E+00	 1.297E+00	-1.106E+00	 1.188E+00	 2.828E-01	-3.546E-02	-3.468E+00	-3.078E-01	-1.624E+01	 1.660E+02	 2.283E-02	 5.668E-02	 0.000E+00
  15.650	 1.576E+01	 1.538E-02	-7.910E-03	-2.858E-05	-3.342E+02	 1.908E+01	 1.400E+00	 3.182E+00	 1.574E-01	 1.896E-03	 2.761E+00	-1.462E+01	 1.862E-01	-1.324E+00	 4.534E+00	 1.901E+00	-1.730E+00	 1.464E+00	 5.144E-01	-3.663E-01	-3.767E+00	-5.435E-01	-1.513E+01	 1.693E+02	 1.948E-02	 7.008E-02	 0.000E+00
  15.700	 1.594E+01	 2.165E-02	-7.021E-03	-4.996E-05	-3.337E+02	 2.031E+01	 1.509E+00	 3.147E+00	-2.154E-02	 3.207E-02	 2.443E+00	-9.040E+00	 4.302E-01	-9.489E-01	 3.564E+00	 2.987E+00	-1.539E+00	 7.933E-01	-8.556E-02	-2.427E+00	-5.692E+00	-5.196E-01	-1.398E+01	 1.776E+02	 1.621E-02	 9.699E-02	 0.000E+00
  15.750	 1.627E+01	 1.310E-02	-3.791E-03	-1.806E-05	-3.334E+02	 2.254E+01	 1.578E+00	 3.082E+00	-3.015E-01	 8.593E-02	 1.550E+00	-2.266E+01	 1.417E-01	-4.256E-01	 1.803E+00	 1.525E+00	-1.026E+00	-2.456E-01	-1.776E-01	-1.751E+00	-4.843E+00	-8.932E-01	-1.214E+01	 1.826E+02	 8.545E-03	 5.722E-02	 0.000E+00
  15.800	 1.662E+01	-4.361E-03	-1.196E-03	-4.068E-06	-3.338E+02	 2.117E+01	 7.539E-01	 3.020E+00	-2.302E-01	 1.063E-02	 3.838E-01	-6.320E+00	-2.245E-01	 1.333E-02	 7.038E-01	-4.387E-01	-8.383E-01	 3.149E-02	 1.163E+00	 5.073E-01	-2.077E+00	-4.390E-01	-1.286E+01	 1.820E+02	 4.061E-03	 3.582E-04	 0.000E+00
  15.850	 1.638E+01	-5.925E-03	 1.620E-03	-7.214E-06	-3.340E+02	 1.889E+01	 2.337E+00	 3.065E+00	 6.036E-02	-1.610E-01	 4.986E-01	 1.080E+01	-1.362E-01	 5.625E-01	-1.100E+00	-1.894E-01	 7.889E-01	 1.536E+00	 2.148E+00	 1.323E+00	-9.073E-01	 6.113E-01	-1.704E+01	 1.705E+02	-3.340E-03	-1.816E-03	 0.000E+00
  15.900	 1.639E+01	 9.468E-03	 1.417E-03	-8.544E-06	-3.346E+02	 1.949E+01	 1.534E+00	 3.061E+00	 3.032E-01	 1.786E-03	 1.223E+00	-2.621E+00	 2.818E-01	 7.763E-01	-1.627E+00	 1.801E+00	 1.319E+00	 1.941E+00	 1.090E+00	-6.584E-02	-2.237E+00	-1.010E-01	-1.479E+01	 1.707E+02	-5.050E-03	 4.916E-02	 0.000E+00
  15.950	 1.672E+01	 1.152E-02	 1.657E-03	-1.358E-05	-3.334E+02	 1.956E+01	 1.026E+00	 2.998E+00	 4.356E-02	 4.251E-02	 9.820E-01	-5.360E+00	 1.423E-01	 9.367E-01	-1.994E+00	 1.423E+00	 2.061E+00	 5.530E-01	-3.995E-01	-1.310E-01	-3.640E+00	-3.082E-01	-1.197E+01	 1.750E+02	-6.105E-03	 4.690E-02	 0.000E+00
  16.000	 1.625E+01	-4.008E-03	 3.552E-03	-5.524E-06	-3.347E+02	 2.031E+01	 1.626E+00	 3.084E+00	-2.505E-01	 5.558E-02	 4.140E-01	-9.324E+00	-4.907E-02	 1.049E+00	-2.476E+00	 7.232E-02	 3.333E+00	-8.396E-01	-1.619E+00	 7.253E-01	-5.057E+00	-5.011E-01	-1.066E+01	 1.793E+02	-8.858E-03	 6.412E-03	 0.000E+00
  16.050	 1.634E+01	-2.976E-03	 1.749E-03	-3.162E-06	-3.351E+02	 1.831E+01	 6.470E-01	 3.068E+00	-1.381E-01	 1.064E-01	-6.442E-01	-2.288E+01	 3.166E-02	 7.819E-01	-1.407E+00	 3.400E-01	 3.480E+00	-5.747E-02	-6.819E-01	-3.232E-01	-3.301E+00	-8.806E-01	-1.184E+01	 1.771E+02	-4.090E-03	 1.083E-02	 0.000E+00
  16.100	 1.679E+01	 9.649E-03	 9.241E-04	-7.876E-06	-3.348E+02	 1.782E+01	 1.887E+00	 2.986E+00	 1.845E-01	-3.856E-03	-1.307E+00	-4.244E+00	 4.780E-01	 6.159E-01	-1.234E+00	 2.253E+00	 4.444E+00	 1.677E+00	 6.385E-01	-3.346E+00	 4.408E-02	-2.396E-01	-1.420E+01	 1.663E+02	-3.637E-03	 5.845E-02	 0.000E+00
  16.150	 1.658E+01	 1.954E-02	-2.657E-03	-3.677E-05	-3.351E+02	 1.913E+01	 1.608E+00	 3.025E+00	 2.881E-01	-5.495E-02	-1.042E+00	-6.774E+00	 6.988E-01	 5.669E-02	 7.102E-01	 3.286E+00	 4.390E+00	 1.613E+00	-5.070E-01	-4.093E+00	 8.111E-01	-1.441E-01	-1.779E+01	 1.651E+02	 4.655E-03	 9.133E-02	 0.000E+00
  16.200	 1.617E+01	 1.245E-02	-2.465E-03	-1.520E-05	-3.338E+02	 2.002E+01	 1.267E+00	 3.102E+00	 9.446E-02	 6.104E-02	-1.851E+00	-2.426E+01	 5.330E-01	-1.859E-01	 9.901E-01	 2.209E+00	 3.982E+00	 4.462E-01	-1.942E+00	-2.033E+00	-6.111E-01	-1.120E+00	-1.697E+01	 1.708E+02	 5.128E-03	 6.354E-02	 0.000E+00
  16.250	 1.605E+01	 2.007E-03	-3.516E-03	-1.914E-06	-3.360E+02	 2.033E+01	 2.247E+00	 3.127E+00	-8.370E-02	-7.369E-02	-2.814E+00	-4.884E+00	 3.557E-01	-6.692E-01	 2.327E+00	 1.047E+00	 4.028E+00	 2.794E-01	-1.675E+00	-1.324E+00	-1.213E+00	-3.777E-01	-1.892E+01	 1.786E+02	 9.544E-03	 3.076E-02	 0.000E+00
  16.300	 1.604E+01	 5.285E-03	-7.157E-03	-6.768E-06	-3.348E+02	 2.002E+01	 1.262E+00	 3.123E+00	-1.939E-01	-1.987E-01	-2.703E+00	 1.357E+01	 2.004E-01	-1.268E+00	 4.435E+00	 8.535E-01	 2.672E+00	 3.773E-01	-1.300E+00	-1.110E+00	-1.698E+00	 4.575E-01	-2.082E+01	 1.829E+02	 1.888E-02	 3.382E-02	 0.000E+00
  16.350	 1.600E+01	 6.442E-03	-6.241E-03	-6.868E-06	-3.341E+02	 2.206E+01	 2.377E+00	 3.131E+00	-9.823E-02	 6.241E-02	-3.214E+00	-3.080E+01	 2.395E-01	-1.295E+00	 3.991E+00	 1.149E+00	 2.166E+00	-4.743E-01	-3.445E+00	 6.786E-01	 1.380E-01	-1.374E+00	-1.696E+01	 1.834E+02	 1.627E-02	 4.162E-02	 0.000E+00
  16.400	 1.590E+01	 1.012E-02	-9.357E-03	-1.737E-05	-3.352E+02	 2.426E+01	 2.756E+00	 3.154E+00	 2.611E-02	 5.090E-02	-4.656E+00	-2.062E+01	 1.738E-01	-1.761E+00	 5.827E+00	 1.292E+00	 1.443E+00	-1.262E+00	-5.258E+00	 1.899E+00	 2.158E+00	-1.001E+00	-1.606E+01	 1.775E+02	 2.419E-02	 5.260E-02	 0.000E+00
  16.450	 1.563E+01	 1.385E-02	-1.002E-02	-2.888E-05	-3.333E+02	 2.631E+01	 1.135E+00	 3.210E+00	 1.463E-02	-1.585E-01	-4.702E+00	 9.697E+00	-1.480E-02	-1.836E+00	 6.012E+00	 1.042E+00	-1.926E-01	-1.533E+00	-4.944E+00	 2.498E+00	 2.213E+00	 4.443E-01	-1.688E+01	 1.768E+02	 2.534E-02	 5.446E-02	 0.000E+00
  16.500	 1.534E+01	-2.325E-03	-7.423E-03	-6.251E-06	-3.337E+02	 2.216E+01	 2.783E+00	 3.272E+00	-2.795E-03	 3.533E-02	-4.987E+00	-1.717E+01	-3.063E-01	-1.637E+00	 5.138E+00	-6.289E-01	-2.446E-01	-4.471E-01	-2.483E+00	 3.973E+00	 1.399E+00	-8.017E-01	-1.098E+01	 1.791E+02	 2.070E-02	 6.440E-03	 0.000E+00
  16.550	 1.525E+01	-1.308E-02	-7.291E-03	-2.757E-05	-3.336E+02	 2.009E+01	 1.643E+00	 3.297E+00	-3.046E-02	 5.795E-02	-5.920E+00	-1.382E+01	-5.936E-01	-1.583E+00	 5.333E+00	-1.819E+00	-1.507E+00	-3.810E-01	-1.658E+00	 5.688E+00	 2.533E+00	-5.707E-01	-9.345E+00	 1.745E+02	 2.196E-02	-2.599E-02	 0.000E+00
  16.600	 1.550E+01	-6.722E-03	-5.474E-03	-8.938E-06	-3.331E+02	 1.968E+01	 6.261E-01	 3.245E+00	-5.439E-02	-1.727E-01	-5.310E+00	 2.883E+01	-5.852E-01	-1.078E+00	 3.787E+00	-1.292E+00	-2.054E+00	-5.497E-01	-1.176E+00	 4.718E+00	 1.331E+00	 1.242E+00	-8.734E+00	 1.770E+02	 1.600E-02	-1.231E-02	 0.000E+00
  16.650	 1.551E+01	-8.070E-03	-3.615E-03	-8.919E-06	-3.333E+02	 1.931E+01	 2.640E+00	 3.244E+00	-9.498E-02	 1.585E-01	-4.997E+00	-2.511E+01	-6.618E-01	-7.192E-01	 2.657E+00	-1.607E+00	-8.497E-01	 1.344E+00	 1.954E+00	 3.340E+00	 5.864E-01	-1.013E+00	-1.571E+00	 1.767E+02	 1.109E-02	-2.083E-02	 0.000E+00
  16.700	 1.528E+01	-2.302E-02	-1.926E-03	-5.847E-05	-3.322E+02	 1.719E+01	-3.440E-02	 3.302E+00	-2.670E-02	 2.529E-01	-7.162E+00	-3.498E+01	-1.165E+00	-3.881E-01	 1.944E+00	-3.926E+00	-1.811E+00	 2.482E+00	 5.354E+00	 5.128E+00	 3.987E+00	-1.441E+00	 3.690E-02	 1.677E+02	 8.582E-03	-8.032E-02	 0.000E+00
  16.750	 1.546E+01	-4.008E-02	 4.314E-03	-1.834E-04	-3.325E+02	 1.360E+01	 1.822E+00	 3.257E+00	 1.584E-01	-2.542E-01	-6.918E+00	 3.727E+01	-1.316E+00	 5.229E-01	-1.337E+00	-5.265E+00	-2.247E-01	 3.197E+00	 7.054E+00	 6.548E+00	 6.077E+00	 1.816E+00	-5.044E+00	 1.610E+02	-5.835E-03	-1.317E-01	 0.000E+00
  16.800	 1.538E+01	-2.309E-02	 2.677E-03	-6.399E-05	-3.358E+02	 1.370E+01	 2.082E+00	 3.262E+00	 2.240E-01	-9.040E-02	-5.372E+00	 1.033E+01	-7.421E-01	 5.992E-01	-1.041E+00	-2.633E+00	 8.905E-01	 4.076E+00	 7.251E+00	 2.360E+00	 4.283E+00	 5.447E-01	-2.657E+00	 1.623E+02	-3.784E-03	-6.721E-02	 0.000E+00
  16.850	 1.512E+01	 1.019E-02	-9.561E-05	-1.133E-05	-3.339E+02	 1.388E+01	-1.037E+00	 3.317E+00	 1.940E-01	 3.368E-01	-6.456E+00	-5.207E+01	-1.147E-01	 6.518E-01	-8.746E-01	 9.908E-01	 4.509E-01	 3.404E+00	 5.409E+00	-2.288E+00	 2.318E+00	-2.209E+00	 1.104E+00	 1.686E+02	-1.164E-03	 4.029E-02	 0.000E+00
  16.900	 1.539E+01	 4.251E-03	 3.344E-03	-2.556E-06	-3.336E+02	 1.280E+01	 9.879E-01	 3.257E+00	-1.258E-02	 4.558E-02	-8.295E+00	-1.104E+01	-3.456E-02	 1.102E+00	-2.716E+00	 6.797E-01	 2.346E+00	 2.586E+00	 4.394E+00	-2.379E+00	 1.599E+00	-4.834E-01	-2.011E+00	 1.753E+02	-9.569E-03	 2.813E-02	 0.000E+00
  16.950	 1.506E+01	-7.070E-03	 2.918E-03	-1.147E-05	-3.353E+02	 1.481E+01	 1.572E+00	 3.329E+00	-2.039E-01	-1.932E-01	-7.784E+00	 1.746E+01	 3.825E-02	 9.370E-01	-1.973E+00	 1.906E-01	 3.419E+00	 2.411E+00	 4.228E+00	-3.097E+00	 1.941E+00	 7.448E-01	-5.556E+00	 1.859E+02	-6.589E-03	 4.510E-03	 0.000E+00
  17.000	 1.490E+01	 1.453E-02	 1.076E-03	-1.954E-05	-3.357E+02	 1.474E+01	 8.087E-01	 3.363E+00	-2.244E-01	-4.881E-02	-7.609E+00	-6.487E+00	 5.738E-01	 8.093E-01	-1.651E+00	 2.815E+00	 3.597E+00	 2.291E+00	 4.109E+00	-8.373E+00	 5.978E+00	-3.108E-01	-5.213E+00	 1.807E+02	-4.799E-03	 7.219E-02	 0.000E+00
  17.050	 1.503E+01	 3.925E-02	-1.745E-03	-1.578E-04	-3.363E+02	 1.680E+01	 1.354E+00	 3.341E+00	 2.357E-03	-8.818E-02	-8.161E+00	-6.308E+00	 1.247E+00	 4.847E-01	-7.176E-01	 5.960E+00	 4.302E+00	 1.520E+00	 1.652E+00	-1.237E+01	 9.088E+00	-2.199E-01	-3.640E+00	 1.771E+02	-6.945E-04	 1.592E-01	 0.000E+00
  17.100	 1.508E+01	 4.410E-02	-4.728E-03	-2.002E-04	-3.356E+02	 2.147E+01	 1.650E+00	 3.328E+00	 3.293E-02	-1.115E-01	-8.246E+00	-9.905E-01	 1.405E+00	-4.107E-02	 1.005E+00	 6.553E+00	 4.480E+00	 1.633E-01	-2.015E+00	-1.078E+01	 7.565E+00	 5.070E-02	-3.018E+00	 1.760E+02	 6.773E-03	 1.811E-01	 0.000E+00
  17.150	 1.488E+01	 3.393E-02	-4.487E-03	-1.195E-04	-3.353E+02	 2.272E+01	 1.853E+00	 3.373E+00	 3.743E-02	 8.756E-02	-8.545E+00	-1.871E+01	 1.065E+00	-3.120E-01	 1.426E+00	 4.885E+00	 4.221E+00	-4.258E-01	-4.056E+00	-5.530E+00	 3.507E+00	-9.067E-01	 2.621E+00	 1.796E+02	 7.519E-03	 1.388E-01	 0.000E+00
  17.200	 1.469E+01	 1.879E-02	-4.776E-03	-3.548E-05	-3.362E+02	 2.361E+01	 2.602E+00	 3.423E+00	-2.278E-02	 1.398E-01	-1.008E+01	-2.557E+01	 8.048E-01	-7.076E-01	 2.410E+00	 3.287E+00	 3.872E+00	-7.657E-01	-4.636E+00	-2.673E+00	 1.991E+00	-1.211E+00	 6.780E+00	 1.815E+02	 1.057E-02	 9.256E-02	 0.000E+00
  17.250	 1.482E+01	 2.456E-02	-8.472E-03	-6.570E-05	-3.368E+02	 2.652E+01	 1.826E+00	 3.389E+00	-1.112E-01	-1.059E-01	-1.045E+01	 1.327E+01	 7.707E-01	-1.353E+00	 4.597E+00	 3.600E+00	 2.709E+00	-2.602E+00	-6.921E+00	-3.260E+00	 4.297E+00	 5.968E-01	 5.402E+00	 1.779E+02	 1.974E-02	 1.073E-01	 0.000E+00
  17.300	 1.481E+01	 2.930E-02	-1.043E-02	-9.753E-05	-3.352E+02	 2.868E+01	 8.964E-01	 3.390E+00	-1.202E-01	-1.768E-01	-9.099E+00	 2.416E+01	 6.923E-01	-1.705E+00	 5.667E+00	 3.715E+00	 1.300E+00	-5.536E+00	-1.142E+01	-1.465E+00	 8.070E+00	 1.237E+00	 7.876E+00	 1.704E+02	 2.434E-02	 1.198E-01	 0.000E+00
  17.350	 1.473E+01	 1.606E-02	-9.541E-03	-3.322E-05	-3.344E+02	 2.756E+01	 2.308E+00	 3.407E+00	 1.376E-01	 1.226E-02	-8.584E+00	-3.895E+00	 2.917E-01	-1.774E+00	 5.712E+00	 1.946E+00	 8.962E-01	-6.133E+00	-1.303E+01	 3.925E+00	 1.021E+01	 9.462E-02	 1.417E+01	 1.623E+02	 2.385E-02	 7.466E-02	 0.000E+00
  17.400	 1.470E+01	-4.565E-05	-9.023E-03	-7.884E-06	-3.343E+02	 2.705E+01	 2.514E+00	 3.429E+00	 2.669E-01	 8.934E-02	-8.791E+00	-6.754E+00	-1.855E-01	-1.844E+00	 6.025E+00	-1.263E-01	 7.168E-02	-3.973E+00	-9.754E+00	 7.237E+00	 8.740E+00	-6.160E-02	 1.943E+01	 1.615E+02	 2.479E-02	 1.998E-02	 0.000E+00
  17.450	 1.471E+01	-4.877E-03	-8.085E-03	-9.640E-06	-3.333E+02	 2.392E+01	 2.287E+00	 3.419E+00	 1.949E-01	 1.436E-01	-9.361E+00	-9.839E+00	-4.340E-01	-1.697E+00	 5.564E+00	-9.672E-01	-7.581E-01	-1.036E+00	-4.437E+00	 6.780E+00	 4.753E+00	-1.968E-01	 2.284E+01	 1.687E+02	 2.288E-02	-2.229E-03	 0.000E+00
  17.500	 1.454E+01	-1.039E-02	-6.489E-03	-1.685E-05	-3.328E+02	 2.118E+01	 2.318E+00	 3.477E+00	 3.145E-02	 1.636E-01	-1.004E+01	-9.963E+00	-7.175E-01	-1.405E+00	 4.704E+00	-1.992E+00	-1.155E+00	 1.258E-01	-1.512E+00	 6.686E+00	 3.578E+00	-3.551E-01	 2.536E+01	 1.788E+02	 1.927E-02	-2.705E-02	 0.000E+00
  17.550	 1.461E+01	-2.778E-02	-3.350E-03	-8.613E-05	-3.321E+02	 1.860E+01	 8.129E-01	 3.448E+00	-1.792E-01	 1.214E-02	-1.018E+01	 7.535E+00	-1.258E+00	-9.506E-01	 3.295E+00	-4.483E+00	-2.010E+00	 5.893E-03	 2.255E-01	 9.266E+00	 5.853E+00	 5.194E-01	 2.143E+01	 1.825E+02	 1.318E-02	-9.406E-02	 0.000E+00
  17.600	 1.463E+01	-5.280E-02	 1.512E-03	-3.094E-04	-3.329E+02	 1.633E+01	 1.521E+00	 3.443E+00	-2.926E-01	-7.602E-02	-9.311E+00	 1.051E+01	-1.915E+00	-3.237E-01	 1.179E+00	-7.525E+00	-1.352E+00	 1.460E+00	 4.264E+00	 1.140E+01	 8.779E+00	 7.163E-01	 1.924E+01	 1.844E+02	 3.579E-03	-1.811E-01	 0.000E+00
  17.650	 1.448E+01	-5.659E-02	 2.444E-03	-3.530E-04	-3.339E+02	 1.343E+01	 9.091E-01	 3.480E+00	-1.207E-01	 6.083E-03	-9.249E+00	-1.041E+01	-1.966E+00	-3.782E-02	 6.024E-01	-7.920E+00	-1.132E+00	 4.535E+00	 9.399E+00	 9.899E+00	 1.024E+01	-2.894E-01	 1.827E+01	 1.801E+02	 1.555E-03	-1.976E-01	 0.000E+00
  17.700	 1.435E+01	-3.770E-02	 2.243E-03	-1.543E-04	-3.336E+02	 1.116E+01	 2.695E-01	 3.517E+00	 1.154E-01	-5.215E-02	-1.017E+01	-9.119E+00	-1.547E+00	 3.169E-01	-2.191E-01	-5.615E+00	-5.936E-01	 6.366E+00	 1.168E+01	 5.925E+00	 9.695E+00	-3.906E-01	 1.686E+01	 1.771E+02	-6.789E-04	-1.355E-01	 0.000E+00
  17.750	 1.420E+01	-1.946E-02	 3.149E-03	-4.428E-05	-3.336E+02	 1.150E+01	 1.158E+00	 3.551E+00	 1.110E-01	-1.821E-01	-1.039E+01	 8.317E+00	-8.663E-01	 7.575E-01	-1.596E+00	-2.732E+00	 7.369E-01	 5.925E+00	 1.011E+01	 1.960E+00	 6.895E+00	 4.113E-01	 1.582E+01	 1.774E+02	-5.689E-03	-6.245E-02	 0.000E+00
  17.800	 1.424E+01	-7.174E-03	 2.809E-03	-7.877E-06	-3.347E+02	 1.128E+01	 2.694E-01	 3.541E+00	-9.467E-02	 2.391E-02	-1.013E+01	-1.359E+01	-4.387E-01	 9.215E-01	-1.934E+00	-8.474E-01	 1.283E+00	 4.540E+00	 8.453E+00	-2.009E+00	 5.336E+00	-5.827E-01	 2.019E+01	 1.803E+02	-6.463E-03	-1.241E-02	 0.000E+00
  17.850	 1.414E+01	 6.480E-04	 2.503E-03	-8.150E-07	-3.348E+02	 1.064E+01	-2.380E-01	 3.567E+00	-1.272E-01	 6.661E-02	-1.114E+01	-2.257E+01	-1.621E-01	 9.881E-01	-2.104E+00	 2.298E-01	 2.146E+00	 4.224E+00	 8.771E+00	-5.771E+00	 7.197E+00	-8.479E-01	 2.404E+01	 1.819E+02	-6.765E-03	 1.480E-02	 0.000E+00
  17.900	 1.361E+01	 6.837E-03	 2.779E-03	-5.204E-06	-3.354E+02	 1.128E+01	 1.979E+00	 3.714E+00	-3.776E-02	-2.067E-01	-1.126E+01	 2.614E+01	 3.923E-01	 1.012E+00	-2.404E+00	 1.995E+00	 3.820E+00	 5.330E+00	 9.634E+00	-9.503E+00	 1.003E+01	 1.139E+00	 2.319E+01	 1.704E+02	-8.254E-03	 5.094E-02	 0.000E+00
  17.950	 1.312E+01	 3.598E-02	-1.790E-03	-1.318E-04	-3.369E+02	 1.504E+01	 1.276E+00	 3.860E+00	 1.215E-01	-7.782E-02	-1.052E+01	-2.583E+00	 1.111E+00	 5.819E-01	-6.934E-01	 5.568E+00	 3.977E+00	 3.886E+00	 5.638E+00	-1.327E+01	 1.105E+01	 3.298E-01	 2.944E+01	 1.673E+02	-8.532E-05	 1.492E-01	 0.000E+00
  18.000	 1.308E+01	 5.617E-02	-3.448E-03	-3.293E-04	-3.356E+02	 1.960E+01	 3.371E-01	 3.865E+00	 8.339E-02	 1.724E-01	-1.137E+01	-2.583E+01	 1.668E+00	 3.880E-01	-3.898E-01	 8.064E+00	 3.850E+00	 5.764E-01	 1.091E-01	-1.550E+01	 1.212E+01	-7.547E-01	 3.677E+01	 1.636E+02	 1.504E-03	 2.200E-01	 0.000E+00
  18.050	 1.276E+01	 4.795E-02	-4.583E-03	-2.375E-04	-3.368E+02	 2.358E+01	 2.745E+00	 3.966E+00	-6.227E-02	 3.707E-02	-1.159E+01	 1.059E+01	 1.548E+00	-1.030E-01	 9.135E-01	 7.075E+00	 5.074E+00	-1.066E+00	-3.225E+00	-1.290E+01	 9.795E+00	 6.740E-01	 3.937E+01	 1.669E+02	 5.832E-03	 1.954E-01	 0.000E+00
  18.100	 1.258E+01	 3.898E-02	-7.230E-03	-1.559E-04	-3.359E+02	 2.408E+01	 1.037E+00	 4.014E+00	 1.649E-02	 1.215E-01	-1.120E+01	-1.097E+01	 1.332E+00	-6.769E-01	 2.905E+00	 6.028E+00	 3.527E+00	-1.818E+00	-5.776E+00	-7.888E+00	 6.466E+00	-7.376E-02	 4.363E+01	 1.694E+02	 1.439E-02	 1.691E-01	 0.000E+00
  18.150	 1.280E+01	 4.558E-02	-6.831E-03	-2.151E-04	-3.365E+02	 2.671E+01	 2.897E+00	 3.961E+00	 1.976E-01	 2.259E-01	-1.243E+01	-2.558E+01	 1.415E+00	-8.148E-01	 2.680E+00	 6.718E+00	 3.805E+00	-2.968E+00	-9.391E+00	-5.514E+00	 7.598E+00	-1.071E+00	 4.392E+01	 1.658E+02	 1.230E-02	 1.880E-01	 0.000E+00
  18.200	 1.308E+01	 5.401E-02	-1.260E-02	-3.145E-04	-3.372E+02	 2.975E+01	 2.080E+00	 3.864E+00	 1.471E-01	-2.114E-01	-1.264E+01	 3.165E+01	 1.482E+00	-1.694E+00	 6.017E+00	 7.424E+00	 2.643E+00	-4.904E+00	-1.314E+01	-5.030E+00	 1.049E+01	 1.497E+00	 3.862E+01	 1.649E+02	 2.679E-02	 2.178E-01	 0.000E+00
  18.250	 1.293E+01	 3.346E-02	-1.111E-02	-1.253E-04	-3.336E+02	 2.972E+01	 3.188E-01	 3.915E+00	-1.851E-01	-1.579E-01	-1.091E+01	 1.937E+01	 7.655E-01	-1.780E+00	 5.891E+00	 4.135E+00	 5.782E-01	-6.813E+00	-1.396E+01	-2.257E-01	 1.052E+01	 1.301E+00	 3.949E+01	 1.717E+02	 2.559E-02	 1.361E-01	 0.000E+00
  18.300	 1.266E+01	-6.302E-03	-6.753E-03	-1.324E-05	-3.351E+02	 2.787E+01	 3.979E+00	 3.977E+00	-1.677E-01	 1.898E-01	-1.086E+01	-2.428E+01	-9.692E-04	-1.666E+00	 5.028E+00	-1.672E-01	 1.326E+00	-6.737E+00	-1.317E+01	 6.327E+00	 1.123E+01	-9.247E-01	 4.410E+01	 1.734E+02	 1.964E-02	 9.423E-03	 0.000E+00
  18.350	 1.256E+01	-1.513E-02	-8.691E-03	-3.621E-05	-3.340E+02	 2.811E+01	 2.023E+00	 4.003E+00	-5.251E-02	-1.539E-03	-1.198E+01	-7.630E+00	-5.364E-01	-1.909E+00	 6.369E+00	-1.950E+00	-5.347E-01	-5.227E+00	-1.087E+01	 9.900E+00	 1.122E+01	-1.271E-01	 4.302E+01	 1.714E+02	 2.606E-02	-3.353E-02	 0.000E+00
  18.400	 1.248E+01	-1.048E-02	-6.017E-03	-1.625E-05	-3.334E+02	 2.425E+01	 1.906E+00	 4.027E+00	 4.970E-02	-2.491E-01	-1.153E+01	 2.683E+01	-7.900E-01	-1.441E+00	 4.512E+00	-2.131E+00	-1.034E+00	-2.646E+00	-7.072E+00	 1.047E+01	 9.209E+00	 1.369E+00	 4.210E+01	 1.692E+02	 1.796E-02	-3.054E-02	 0.000E+00
  18.450	 1.240E+01	-2.570E-02	-5.184E-03	-7.857E-05	-3.332E+02	 1.996E+01	 2.112E+00	 4.052E+00	 1.022E-01	 8.024E-03	-1.098E+01	-6.248E+00	-1.215E+00	-1.312E+00	 4.476E+00	-4.105E+00	-1.384E+00	 2.007E-01	-1.728E+00	 1.124E+01	 7.995E+00	-2.223E-01	 4.784E+01	 1.702E+02	 1.794E-02	-8.030E-02	 0.000E+00
  18.500	 1.236E+01	-4.147E-02	-1.896E-03	-1.889E-04	-3.321E+02	 1.565E+01	 1.061E+00	 4.058E+00	 3.646E-02	-6.495E-02	-1.123E+01	 3.966E+00	-1.801E+00	-7.985E-01	 2.848E+00	-6.508E+00	-2.004E+00	 1.328E+00	 1.809E+00	 1.329E+01	 9.910E+00	 5.506E-01	 5.086E+01	 1.681E+02	 1.117E-02	-1.454E-01	 0.000E+00
  18.550	 1.231E+01	-5.221E-02	 2.480E-03	-2.938E-04	-3.328E+02	 1.406E+01	 1.271E+00	 4.080E+00	-1.758E-01	-8.747E-02	-9.734E+00	 3.566E+01	-2.109E+00	-6.713E-02	 4.402E-01	-8.017E+00	-1.601E+00	 2.010E+00	 5.098E+00	 1.247E+01	 9.909E+00	 1.883E+00	 5.893E+01	 1.734E+02	 7.153E-04	-1.918E-01	 0.000E+00
  18.600	 1.243E+01	-5.624E-02	 3.500E-03	-3.410E-04	-3.342E+02	 1.522E+01	 1.076E+00	 4.056E+00	-2.655E-01	 3.303E-01	-9.412E+00	-2.330E+01	-2.163E+00	 1.800E-01	-1.099E-01	-8.390E+00	-7.282E-01	 4.233E+00	 1.019E+01	 8.605E+00	 9.979E+00	-4.282E-01	 6.772E+01	 1.687E+02	-1.484E-03	-2.067E-01	 0.000E+00
  18.650	 1.207E+01	-5.176E-02	 3.987E-03	-2.916E-04	-3.333E+02	 1.111E+01	 1.412E-01	 4.194E+00	-6.248E-02	 2.215E-01	-1.103E+01	-1.201E+01	-2.010E+00	 5.182E-01	-8.289E-01	-7.617E+00	-3.277E-01	 6.423E+00	 1.393E+01	 5.727E+00	 1.164E+01	-6.380E-02	 6.688E+01	 1.609E+02	-3.408E-03	-1.864E-01	 0.000E+00
  18.700	 1.231E+01	-3.797E-02	 6.781E-03	-1.697E-04	-3.337E+02	 8.047E+00	 2.290E+00	 4.124E+00	 2.536E-01	-2.115E-01	-1.012E+01	 3.910E+01	-1.286E+00	 1.135E+00	-3.101E+00	-4.739E+00	 1.466E+00	 7.832E+00	 1.420E+01	 2.649E+00	 1.078E+01	 2.194E+00	 6.155E+01	 1.527E+02	-1.283E-02	-1.223E-01	 0.000E+00
  18.750	 1.230E+01	-2.398E-03	 2.254E-03	-2.058E-06	-3.360E+02	 1.242E+01	 1.218E+00	 4.129E+00	 3.124E-01	 1.758E-02	-8.700E+00	-2.110E+00	-4.528E-01	 9.366E-01	-1.796E+00	-4.552E-01	 2.184E+00	 6.487E+00	 1.051E+01	-2.715E+00	 7.498E+00	 3.423E-01	 6.454E+01	 1.542E+02	-5.717E-03	-2.098E-03	 0.000E+00
  18.800	 1.206E+01	 1.731E-02	 1.180E-03	-3.165E-05	-3.334E+02	 1.333E+01	-6.117E-01	 4.201E+00	 1.713E-01	 2.308E-01	-9.981E+00	-3.276E+01	 3.976E-02	 9.953E-01	-2.034E+00	 1.816E+00	 2.422E+00	 4.774E+00	 8.649E+00	-7.233E+00	 7.843E+00	-1.116E+00	 6.518E+01	 1.563E+02	-5.678E-03	 6.424E-02	 0.000E+00
  18.850	 1.226E+01	 1.224E-03	 4.688E-03	-3.432E-06	-3.346E+02	 1.574E+01	 3.036E+00	 4.149E+00	-1.586E-01	-2.186E-01	-9.483E+00	 5.117E+01	 2.349E-01	 1.132E+00	-3.225E+00	 1.200E+00	 4.767E+00	 4.514E+00	 8.692E+00	-8.629E+00	 8.470E+00	 2.435E+00	 6.128E+01	 1.621E+02	-1.264E-02	 3.076E-02	 0.000E+00
  18.900	 1.224E+01	 1.052E-02	-5.714E-04	-9.594E-06	-3.362E+02	 1.951E+01	 1.465E+00	 4.151E+00	-3.303E-01	-1.097E-01	-6.958E+00	 3.148E+01	 5.757E-01	 4.493E-01	-3.675E-01	 2.678E+00	 4.276E+00	 2.132E+00	 4.577E+00	-1.021E+01	 7.647E+00	 1.838E+00	 6.275E+01	 1.669E+02	 3.882E-04	 6.878E-02	 0.000E+00
  18.950	 1.196E+01	 3.983E-02	-2.356E-03	-1.587E-04	-3.354E+02	 2.084E+01	 5.758E-01	 4.235E+00	-9.936E-02	 2.187E-01	-6.715E+00	-2.416E+01	 1.309E+00	 3.078E-01	-3.040E-01	 6.403E+00	 4.077E+00	-7.792E-01	-1.287E+00	-1.297E+01	 9.621E+00	-7.657E-01	 6.637E+01	 1.611E+02	 9.987E-04	 1.715E-01	 0.000E+00
  19.000	 1.171E+01	 5.359E-02	-6.490E-03	-2.948E-04	-3.367E+02	 2.247E+01	 2.861E+00	 4.306E+00	 1.232E-01	-1.210E-01	-7.249E+00	 1.121E+01	 1.744E+00	-3.933E-01	 1.977E+00	 8.169E+00	 5.018E+00	-7.026E-01	-4.286E+00	-1.252E+01	 9.654E+00	 9.005E-01	 6.239E+01	 1.545E+02	 1.029E-02	 2.229E-01	 0.000E+00
  19.050	 1.138E+01	 4.254E-02	-8.794E-03	-1.863E-04	-3.344E+02	 2.282E+01	 4.392E-01	 4.431E+00	 1.632E-01	-2.280E-01	-5.878E+00	 3.181E+01	 1.385E+00	-1.019E+00	 3.906E+00	 6.487E+00	 3.228E+00	-4.107E-01	-4.784E+00	-7.614E+00	 5.471E+00	 1.742E+00	 6.597E+01	 1.569E+02	 1.817E-02	 1.851E-01	 0.000E+00
  19.100	 1.122E+01	 1.815E-02	-6.544E-03	-3.365E-05	-3.350E+02	 2.249E+01	 2.350E+00	 4.489E+00	 2.799E-02	 1.813E-01	-5.541E+00	-1.110E+01	 8.469E-01	-1.152E+00	 3.748E+00	 3.530E+00	 3.307E+00	-1.849E+00	-5.993E+00	-3.149E+00	 3.366E+00	-2.267E-01	 7.356E+01	 1.584E+02	 1.559E-02	 1.001E-01	 0.000E+00
  19.150	 1.169E+01	 1.056E-02	-8.975E-03	-1.682E-05	-3.362E+02	 2.411E+01	 1.656E+00	 4.308E+00	-2.370E-01	 1.323E-01	-5.867E+00	 1.380E+01	 5.986E-01	-1.688E+00	 5.639E+00	 2.516E+00	 2.042E+00	-4.023E+00	-8.140E+00	-2.249E+00	 4.916E+00	 9.506E-01	 7.532E+01	 1.576E+02	 2.332E-02	 7.488E-02	 0.000E+00
  19.200	 1.165E+01	 1.622E-02	-1.089E-02	-3.421E-05	-3.354E+02	 2.241E+01	-6.571E-01	 4.325E+00	-2.543E-01	-1.319E-01	-3.874E+00	 5.765E+01	 4.086E-01	-1.983E+00	 6.597E+00	 2.503E+00	-1.113E-01	-5.394E+00	-9.847E+00	-9.199E-01	 6.072E+00	 2.979E+00	 7.416E+01	 1.542E+02	 2.762E-02	 8.587E-02	 0.000E+00
  19.250	 1.120E+01	 4.130E-03	-9.228E-03	-8.488E-06	-3.341E+02	 1.935E+01	 1.321E+00	 4.492E+00	 5.230E-02	 6.370E-02	-1.766E+00	 1.159E+01	-2.800E-02	-1.879E+00	 6.048E+00	 5.713E-01	-3.417E-01	-4.645E+00	-9.391E+00	 4.061E+00	 6.706E+00	 1.098E+00	 7.489E+01	 1.420E+02	 2.477E-02	 3.753E-02	 0.000E+00
  19.300	 1.115E+01	-6.497E-03	-8.276E-03	-1.303E-05	-3.345E+02	 1.948E+01	 1.991E+00	 4.498E+00	 2.998E-01	 1.326E-01	-1.640E+00	-3.113E+00	-3.760E-01	-1.791E+00	 5.840E+00	-8.519E-01	-9.099E-01	-2.435E+00	-6.253E+00	 6.437E+00	 5.494E+00	 3.596E-01	 7.683E+01	 1.348E+02	 2.371E-02	-1.089E-03	 0.000E+00
  19.350	 1.095E+01	-3.773E-03	-7.577E-03	-7.265E-06	-3.336E+02	 1.924E+01	 1.199E+00	 4.591E+00	 2.614E-01	 8.149E-02	-1.574E+00	 9.274E-01	-4.193E-01	-1.550E+00	 5.161E+00	-8.043E-01	-1.861E+00	-6.991E-01	-2.546E+00	 4.772E+00	 1.937E+00	 6.074E-01	 7.612E+01	 1.373E+02	 2.132E-02	-1.104E-04	 0.000E+00
  19.400	 1.073E+01	-7.911E-03	-4.995E-03	-1.009E-05	-3.334E+02	 1.859E+01	 2.305E+00	 4.696E+00	 7.466E-02	 1.232E-01	-1.798E+00	 5.025E+00	-5.834E-01	-1.078E+00	 3.612E+00	-1.509E+00	-1.497E+00	-4.380E-01	-6.684E-01	 3.716E+00	 4.454E-01	 5.187E-01	 7.529E+01	 1.444E+02	 1.484E-02	-1.932E-02	 0.000E+00
  19.450	 1.050E+01	-2.503E-02	-1.454E-03	-6.983E-05	-3.334E+02	 1.763E+01	 7.089E-01	 4.796E+00	-1.579E-01	-1.280E-02	-1.228E+00	 2.215E+01	-1.114E+00	-5.377E-01	 1.921E+00	-3.946E+00	-2.248E+00	-8.627E-01	 5.786E-01	 6.298E+00	 2.710E+00	 1.351E+00	 6.731E+01	 1.422E+02	 7.612E-03	-8.530E-02	 0.000E+00
  19.500	 1.052E+01	-3.879E-02	 2.794E-03	-1.672E-04	-3.342E+02	 1.782E+01	 1.949E+00	 4.783E+00	-1.835E-01	-1.683E-01	 8.082E-01	 3.773E+01	-1.372E+00	 1.277E-01	-2.851E-01	-5.390E+00	-1.204E+00	 1.262E-01	 2.927E+00	 7.133E+00	 4.016E+00	 1.974E+00	 6.137E+01	 1.456E+02	-1.954E-03	-1.333E-01	 0.000E+00
  19.550	 1.085E+01	-2.459E-02	 2.339E-03	-6.730E-05	-3.356E+02	 2.008E+01	 2.380E+00	 4.636E+00	 7.864E-02	-8.933E-02	 2.086E+00	 1.809E+00	-1.004E+00	 3.649E-01	-6.790E-01	-3.476E+00	-6.811E-02	 2.321E+00	 4.960E+00	 4.075E+00	 2.981E+00	 4.538E-01	 6.075E+01	 1.433E+02	-2.798E-03	-8.570E-02	 0.000E+00
  19.600	 1.100E+01	-1.828E-03	 8.266E-04	-7.100E-07	-3.342E+02	 2.002E+01	 5.347E-01	 4.574E+00	 2.364E-01	 5.054E-03	 1.422E+00	-9.119E+00	-5.239E-01	 5.697E-01	-8.688E-01	-7.778E-01	-1.355E-01	 2.842E+00	 4.673E+00	 1.056E+00	 1.296E+00	-4.459E-01	 6.065E+01	 1.422E+02	-1.993E-03	-7.146E-03	 0.000E+00
  19.650	 1.098E+01	-1.205E-04	 3.465E-03	-1.077E-06	-3.336E+02	 2.289E+01	 2.137E+00	 4.590E+00	 6.203E-02	-1.320E-01	 1.069E+00	 9.090E+00	-3.143E-01	 1.026E+00	-2.573E+00	-1.240E-01	 1.983E+00	 1.585E+00	 2.273E+00	 4.388E-01	-1.131E+00	 6.592E-01	 6.283E+01	 1.525E+02	-9.322E-03	 7.743E-03	 0.000E+00
  19.700	 1.060E+01	-7.829E-03	 3.889E-03	-1.084E-05	-3.341E+02	 2.237E+01	 1.819E+00	 4.749E+00	-1.072E-01	-1.058E-01	 1.762E+00	 2.250E+01	-2.965E-01	 1.089E+00	-2.568E+00	-5.916E-01	 2.862E+00	 1.675E+00	 2.898E+00	-1.631E-01	-6.669E-01	 1.098E+00	 6.292E+01	 1.554E+02	-9.257E-03	-1.021E-02	 0.000E+00
  19.750	 1.083E+01	-9.329E-03	 4.940E-03	-1.443E-05	-3.336E+02	 2.268E+01	 2.664E+00	 4.632E+00	-1.950E-01	-5.812E-02	 3.029E+00	 2.385E+01	-2.530E-01	 1.167E+00	-3.104E+00	-6.373E-01	 4.029E+00	 2.225E+00	 4.139E+00	-2.084E+00	 9.946E-01	 1.375E+00	 6.780E+01	 1.592E+02	-1.191E-02	-1.674E-02	 0.000E+00
  19.800	 1.075E+01	-1.366E-02	 4.522E-03	-2.813E-05	-3.342E+02	 2.393E+01	 2.351E+00	 4.663E+00	-3.378E-01	 6.985E-02	 4.887E+00	 3.089E+01	-2.368E-01	 9.714E-01	-2.546E+00	-8.663E-01	 4.552E+00	 1.314E+00	 2.939E+00	-2.301E+00	-1.114E-01	 1.704E+00	 7.434E+01	 1.564E+02	-1.007E-02	-2.452E-02	 0.000E+00
  19.850	 1.072E+01	-1.363E-02	 1.780E-03	-2.643E-05	-3.345E+02	 2.136E+01	 1.449E+00	 4.670E+00	-1.970E-01	 3.034E-01	 5.939E+00	-1.960E+00	-3.519E-01	 4.969E-01	-8.047E-01	-1.082E+00	 4.577E+00	 3.405E-03	 2.849E-01	-1.684E-01	-3.191E+00	 3.516E-01	 8.033E+01	 1.572E+02	-2.609E-03	-2.461E-02	 0.000E+00
  19.900	 1.070E+01	-8.193E-03	 2.790E-04	-1.256E-05	-3.339E+02	 1.769E+01	 1.533E+00	 4.677E+00	 1.481E-01	 2.538E-01	 4.924E+00	-7.124E+00	-1.713E-01	 1.432E-01	 6.612E-02	-2.562E-01	 4.631E+00	 1.026E+00	 1.722E-02	 6.906E-01	-4.076E+00	-7.009E-02	 7.946E+01	 1.447E+02	 7.287E-04	-1.806E-03	 0.000E+00
  19.950	 1.057E+01	 1.418E-03	-3.905E-03	-2.409E-06	-3.348E+02	 1.597E+01	 1.429E+00	 4.742E+00	 3.105E-01	-1.175E-01	 5.310E+00	 3.318E+01	 1.643E-02	-5.970E-01	 2.513E+00	 7.621E-01	 4.152E+00	 2.791E+00	 1.364E+00	-5.846E-01	-3.560E+00	 1.820E+00	 7.017E+01	 1.357E+02	 1.071E-02	 3.103E-02	 0.000E+00
  20.000	 1.074E+01	 2.506E-03	-6.631E-03	-5.692E-06	-3.329E+02	 1.540E+01	 4.366E-01	 4.669E+00	 2.760E-01	-7.710E-02	 6.757E+00	 1.791E+01	 7.323E-02	-1.115E+00	 4.183E+00	 9.800E-01	 2.901E+00	 1.496E+00	 9.475E-02	-1.298E+00	-2.584E+00	 1.274E+00	 6.566E+01	 1.376E+02	 1.805E-02	 4.111E-02	 0.000E+00
  20.050	 1.069E+01	-7.037E-03	-5.144E-03	-1.190E-05	-3.331E+02	 1.539E+01	 1.228E+00	 4.686E+00	-1.575E-02	 2.237E-01	 6.605E+00	-1.832E+01	-2.599E-01	-1.163E+00	 3.806E+00	-5.646E-01	 2.345E+00	-7.476E-01	-1.453E+00	-2.040E-01	-1.952E+00	-4.376E-01	 6.440E+01	 1.394E+02	 1.529E-02	-3.667E-05	 0.000E+00
  20.100	 1.064E+01	-1.123E-02	-7.813E-03	-2.456E-05	-3.349E+02	 1.406E+01	 8.697E-01	 4.708E+00	-1.812E-01	 4.171E-02	 6.462E+00	 7.667E+00	-3.148E-01	-1.719E+00	 5.755E+00	-1.053E+00	 1.243E+00	-7.241E-01	-6.675E-01	-4.856E-01	-2.815E+00	 5.402E-01	 5.482E+01	 1.411E+02	 2.318E-02	-1.354E-02	 0.000E+00
  20.150	 1.073E+01	-5.462E-03	-8.776E-03	-1.354E-05	-3.338E+02	 8.126E+00	 4.664E-01	 4.679E+00	-8.736E-03	-1.585E-01	 7.408E+00	 1.267E+01	-1.634E-01	-1.883E+00	 6.124E+00	-2.902E-01	-8.811E-02	 1.021E+00	 1.555E+00	-9.785E-01	-5.143E+00	 6.837E-01	 4.706E+01	 1.473E+02	 2.497E-02	 7.062E-03	 0.000E+00
  20.200	 1.108E+01	 1.984E-03	-8.569E-03	-7.615E-06	-3.347E+02	 1.051E+01	 1.786E+00	 4.528E+00	 2.679E-01	-1.407E-01	 7.652E+00	-6.733E+00	 1.517E-01	-1.879E+00	 5.856E+00	 9.298E-01	-1.927E-01	 2.571E+00	 2.310E+00	-1.079E+00	-5.892E+00	-4.880E-01	 4.293E+01	 1.442E+02	 2.335E-02	 3.558E-02	 0.000E+00
  20.250	 1.151E+01	 9.076E-03	-9.684E-03	-1.553E-05	-3.342E+02	 1.481E+01	 1.178E+00	 4.354E+00	 2.092E-01	-1.988E-01	 7.382E+00	-1.351E+00	 2.870E-01	-1.901E+00	 6.156E+00	 1.620E+00	-1.331E+00	 1.813E+00	 1.152E+00	-1.320E+00	-5.166E+00	-1.632E-01	 3.951E+01	 1.499E+02	 2.531E-02	 5.545E-02	 0.000E+00
  20.300	 1.100E+01	 6.986E-03	-6.757E-03	-8.363E-06	-3.343E+02	 1.905E+01	 9.753E-01	 4.562E+00	-1.280E-01	-1.747E-01	 7.602E+00	 1.201E+01	 1.528E-01	-1.415E+00	 4.346E+00	 1.015E+00	-1.788E+00	 1.016E-02	-4.087E-02	-1.233E+00	-4.571E+00	 4.937E-01	 4.342E+01	 1.577E+02	 1.754E-02	 3.928E-02	 0.000E+00
  20.350	 1.132E+01	-1.906E-03	-4.668E-03	-4.014E-06	-3.354E+02	 2.039E+01	 1.700E+00	 4.439E+00	-2.488E-01	 6.987E-04	 7.755E+00	-9.875E-01	 3.658E-02	-1.024E+00	 3.268E+00	 1.804E-01	-1.633E+00	-5.271E-01	-1.537E-02	-6.625E-01	-4.036E+00	 4.754E-03	 4.910E+01	 1.646E+02	 1.319E-02	 1.248E-02	 0.000E+00
  20.400	 1.145E+01	-1.088E-04	-3.263E-03	-2.007E-06	-3.353E+02	 2.051E+01	 1.320E+00	 4.398E+00	-1.848E-01	 3.146E-02	 7.480E+00	-1.211E+00	 3.558E-02	-5.741E-01	 2.110E+00	 4.448E-01	-1.751E+00	-5.448E-01	-1.816E-01	-1.135E-01	-3.647E+00	 1.857E-01	 5.229E+01	 1.643E+02	 9.097E-03	 1.770E-02	 0.000E+00
  20.450	 1.167E+01	 1.048E-02	-1.582E-03	-1.007E-05	-3.355E+02	 2.285E+01	 1.959E+00	 4.323E+00	-6.727E-02	 3.836E-02	 8.028E+00	 7.568E+00	 2.765E-01	-2.126E-02	 5.000E-01	 1.884E+00	-8.524E-01	-7.655E-01	-1.443E+00	-1.028E+00	-5.121E+00	 5.631E-01	 5.856E+01	 1.644E+02	 2.996E-03	 5.544E-02	 0.000E+00
  20.500	 1.103E+01	 1.961E-02	-1.564E-03	-3.876E-05	-3.355E+02	 2.544E+01	 2.203E+00	 4.559E+00	 3.010E-02	 1.995E-01	 8.106E+00	-1.423E+01	 4.112E-01	 2.548E-01	-3.243E-02	 2.805E+00	 1.682E-01	-8.220E-01	-2.317E+00	-1.713E+00	-6.266E+00	-3.029E-01	 6.119E+01	 1.621E+02	 1.577E-03	 8.321E-02	 0.000E+00
  20.550	 1.093E+01	 1.562E-02	 3.086E-04	-2.553E-05	-3.334E+02	 2.560E+01	 1.900E+00	 4.593E+00	 3.525E-02	 1.609E-01	 7.744E+00	 5.661E+00	 1.367E-01	 6.802E-01	-1.262E+00	 1.751E+00	 8.944E-01	-7.807E-01	-2.164E+00	-1.315E-01	-5.544E+00	 3.812E-01	 6.182E+01	 1.588E+02	-3.058E-03	 5.870E-02	 0.000E+00
  20.600	 1.149E+01	 4.084E-04	 3.971E-03	-1.533E-06	-3.347E+02	 2.728E+01	 3.094E+00	 4.370E+00	-1.233E-01	 1.166E-01	 7.929E+00	 1.025E+01	-9.217E-02	 1.108E+00	-2.869E+00	 3.369E-01	 2.489E+00	-1.196E+00	-2.338E+00	 9.341E-01	-5.885E+00	 7.742E-01	 6.035E+01	 1.561E+02	-1.071E-02	 1.517E-02	 0.000E+00
  20.650	 1.126E+01	-4.772E-04	 1.724E-03	-1.578E-06	-3.350E+02	 2.504E+01	 1.144E+00	 4.458E+00	-2.765E-02	 2.547E-01	 7.662E+00	-2.441E+01	-9.188E-02	 8.739E-01	-1.545E+00	 4.269E-01	 2.688E+00	-1.288E+00	-2.519E+00	 5.224E-01	-5.729E+00	-7.735E-01	 5.364E+01	 1.526E+02	-4.405E-03	 1.795E-02	 0.000E+00
  20.700	 1.135E+01	-5.165E-03	 4.239E-03	-6.849E-06	-3.332E+02	 2.246E+01	 1.629E+00	 4.420E+00	 1.361E-01	 3.479E-03	 6.472E+00	-6.620E+00	-2.133E-01	 1.097E+00	-2.837E+00	-1.520E-01	 3.873E+00	-3.858E-02	-3.542E-01	 2.397E-01	-3.835E+00	-8.142E-02	 4.257E+01	 1.474E+02	-1.057E-02	 1.446E-03	 0.000E+00
  20.750	 1.126E+01	-1.543E-02	 3.378E-03	-3.571E-05	-3.346E+02	 2.308E+01	 2.799E+00	 4.462E+00	 1.338E-01	-3.485E-01	 7.260E+00	 3.050E+01	-2.698E-01	 7.609E-01	-1.708E+00	-9.699E-01	 4.926E+00	 1.164E+00	 9.617E-01	 6.554E-01	-3.662E+00	 1.380E+00	 3.104E+01	 1.420E+02	-6.637E-03	-2.535E-02	 0.000E+00
  20.800	 1.134E+01	-1.111E-02	-4.230E-05	-1.976E-05	-3.336E+02	 2.182E+01	 9.582E-01	 4.431E+00	 1.983E-01	-2.296E-01	 8.286E+00	-4.296E+00	-2.524E-01	 2.375E-01	 2.509E-01	-5.785E-01	 4.311E+00	 7.500E-01	-1.104E-01	 9.752E-01	-4.345E+00	 1.119E-03	 2.589E+01	 1.426E+02	 2.042E-03	-1.060E-02	 0.000E+00
  20.850	 1.140E+01	-6.711E-03	-2.881E-04	-8.296E-06	-3.338E+02	 1.768E+01	 1.667E+00	 4.415E+00	 2.398E-01	 6.461E-03	 7.454E+00	-3.504E+01	-2.745E-01	 6.188E-02	 4.049E-01	-3.694E-01	 4.570E+00	 5.374E-01	-9.469E-01	 1.708E+00	-4.783E+00	-1.602E+00	 2.733E+01	 1.478E+02	 2.025E-03	 5.107E-04	 0.000E+00
  20.900	 1.154E+01	-1.344E-02	-2.064E-03	-2.462E-05	-3.336E+02	 1.377E+01	 1.557E+00	 4.367E+00	 5.426E-02	-4.508E-02	 5.806E+00	-1.815E+01	-5.089E-01	-4.261E-01	 1.860E+00	-1.638E+00	 3.936E+00	 1.747E+00	 1.005E+00	 2.900E+00	-6.321E+00	-9.057E-01	 3.047E+01	 1.583E+02	 7.758E-03	-2.985E-02	 0.000E+00
  20.950	 1.146E+01	-2.350E-02	-2.425E-03	-7.178E-05	-3.343E+02	 1.239E+01	 1.346E+00	 4.398E+00	-1.622E-01	 1.424E-02	 4.950E+00	-1.265E+01	-6.231E-01	-8.016E-01	 2.693E+00	-2.511E+00	 2.991E+00	 2.484E+00	 2.860E+00	 2.981E+00	-7.325E+00	-7.658E-01	 3.231E+01	 1.706E+02	 1.030E-02	-5.644E-02	 0.000E+00
  21.000	 1.143E+01	-1.293E-02	-6.177E-03	-2.916E-05	-3.352E+02	 1.478E+01	 1.698E+00	 4.408E+00	-2.741E-01	-6.255E-02	 4.257E+00	-2.092E+00	-2.279E-01	-1.402E+00	 4.736E+00	-8.668E-01	 2.273E+00	 1.092E+00	 7.174E-01	 2.979E-01	-4.151E+00	-6.314E-02	 3.155E+01	 1.741E+02	 1.902E-02	-1.551E-02	 0.000E+00
  21.050	 1.122E+01	 7.409E-03	-1.004E-02	-1.322E-05	-3.350E+02	 1.614E+01	-6.382E-01	 4.482E+00	-2.400E-01	-3.228E-01	 5.584E+00	 4.246E+01	 1.958E-01	-1.938E+00	 6.464E+00	 1.383E+00	 3.830E-01	-9.577E-01	-2.662E+00	-1.622E+00	-8.696E-01	 2.012E+00	 3.385E+01	 1.702E+02	 2.652E-02	 5.035E-02	 0.000E+00
  21.100	 1.082E+01	 3.693E-03	-9.535E-03	-8.965E-06	-3.337E+02	 1.747E+01	 4.240E-01	 4.644E+00	-1.119E-01	-3.634E-02	 7.226E+00	 8.533E+00	 1.603E-01	-2.004E+00	 6.370E+00	 8.523E-01	-9.068E-02	-4.977E-01	-2.278E+00	 2.208E-01	-1.295E+00	 7.370E-01	 4.074E+01	 1.657E+02	 2.568E-02	 3.651E-02	 0.000E+00
  21.150	 1.056E+01	-7.114E-03	-7.956E-03	-1.784E-05	-3.344E+02	 1.486E+01	 3.167E+00	 4.749E+00	 7.099E-02	 4.128E-01	 6.334E+00	-3.778E+01	 1.561E-01	-1.882E+00	 5.837E+00	 2.384E-01	 1.264E-01	 2.509E+00	 2.150E+00	-1.383E-01	-5.078E+00	-1.487E+00	 5.357E+01	 1.683E+02	 2.309E-02	 1.097E-02	 0.000E+00
  21.200	 1.073E+01	 6.816E-03	-9.084E-03	-1.070E-05	-3.346E+02	 1.625E+01	 1.246E+00	 4.670E+00	-9.375E-02	 4.309E-01	 4.041E+00	-3.009E+01	 2.602E-01	-1.781E+00	 5.806E+00	 1.359E+00	-1.496E+00	 2.308E+00	 3.041E+00	-3.217E+00	-7.711E+00	-1.074E+00	 5.619E+01	 1.629E+02	 2.398E-02	 4.594E-02	 0.000E+00
  21.250	 1.128E+01	 1.336E-02	-6.947E-03	-2.319E-05	-3.333E+02	 1.875E+01	 1.363E+00	 4.441E+00	-2.197E-01	 1.699E-01	 3.449E+00	 3.385E+00	 8.311E-02	-1.258E+00	 4.053E+00	 1.249E+00	-1.602E+00	-5.036E-01	 3.216E-01	-3.215E+00	-6.473E+00	 4.748E-01	 4.612E+01	 1.608E+02	 1.703E-02	 5.240E-02	 0.000E+00
  21.300	 1.152E+01	-9.688E-03	-3.094E-03	-1.159E-05	-3.342E+02	 2.080E+01	 1.508E+00	 4.347E+00	-7.940E-02	 1.503E-02	 3.923E+00	 3.981E+00	-5.666E-01	-7.645E-01	 2.489E+00	-1.762E+00	-1.602E+00	-1.221E+00	-1.341E-01	 1.978E+00	-1.423E+00	 4.915E-01	 3.465E+01	 1.415E+02	 9.889E-03	-2.814E-02	 0.000E+00
  21.350	 1.127E+01	-2.484E-02	-8.185E-04	-7.461E-05	-3.348E+02	 2.054E+01	 1.431E+00	 4.442E+00	 2.842E-01	-1.374E-01	 4.249E+00	 1.259E+00	-8.102E-01	-3.680E-01	 1.492E+00	-3.041E+00	-1.463E+00	 2.657E-01	 1.920E+00	 4.125E+00	 1.129E+00	 1.409E-01	 2.372E+01	 1.263E+02	 6.012E-03	-7.044E-02	 0.000E+00
  21.400	 1.125E+01	-2.680E-03	-7.782E-04	-1.453E-06	-3.352E+02	 2.016E+01	 2.209E+00	 4.454E+00	 5.728E-01	-3.984E-01	 4.448E+00	 2.028E+01	-3.226E-01	 6.815E-02	 4.144E-01	-3.317E-01	-6.470E-01	 7.357E-01	 1.026E+00	 1.979E+00	-1.385E+00	 8.250E-01	 1.309E+01	 1.238E+02	 2.586E-03	-2.283E-03	 0.000E+00
  21.450	 1.127E+01	 2.824E-02	-1.750E-03	-8.421E-05	-3.345E+02	 2.393E+01	 1.533E+00	 4.440E+00	 5.255E-01	-2.828E-01	 5.331E+00	 1.626E+01	 4.908E-01	 4.081E-01	-3.870E-01	 3.667E+00	-4.390E-02	-9.609E-01	-3.502E+00	-1.369E+00	-7.139E+00	 2.419E-01	 1.534E+01	 1.347E+02	 7.812E-04	 1.087E-01	 0.000E+00
  21.500	 1.130E+01	 2.421E-02	 2.981E-04	-6.020E-05	-3.343E+02	 2.585E+01	 1.645E+00	 4.435E+00	 1.056E-01	-2.022E-02	 5.066E+00	-2.477E+01	 3.567E-01	 7.457E-01	-1.547E+00	 3.004E+00	 1.270E+00	-2.420E+00	-4.992E+00	-1.352E+00	-8.391E+00	-9.765E-01	 2.147E+01	 1.516E+02	-4.192E-03	 9.630E-02	 0.000E+00
  21.550	 1.084E+01	-7.788E-03	 3.534E-03	-1.189E-05	-3.342E+02	 2.407E+01	 1.359E+00	 4.631E+00	-2.729E-01	 1.497E-03	 4.961E+00	 3.743E+00	-2.137E-01	 1.018E+00	-2.358E+00	-3.781E-01	 1.958E+00	-1.426E+00	-1.241E+00	 3.094E-01	-4.630E+00	-1.007E-04	 2.542E+01	 1.657E+02	-8.218E-03	-2.928E-03	 0.000E+00
  21.600	 1.083E+01	-6.650E-03	 3.452E-03	-9.041E-06	-3.352E+02	 2.233E+01	 2.785E+00	 4.632E+00	-2.069E-01	-8.428E-02	 5.260E+00	 9.326E-01	-2.227E-01	 1.036E+00	-2.324E+00	-2.231E-01	 3.802E+00	 9.046E-01	 1.121E+00	-2.691E-01	-2.293E+00	 5.119E-01	 3.168E+01	 1.736E+02	-8.203E-03	-2.812E-03	 0.000E+00
  21.650	 1.070E+01	 1.134E-02	 1.044E-03	-1.260E-05	-3.341E+02	 2.078E+01	 1.057E+00	 4.702E+00	-5.791E-02	 1.016E-01	 5.094E+00	-2.823E+00	 1.131E-01	 8.458E-01	-1.562E+00	 1.665E+00	 3.675E+00	 1.899E+00	 1.000E+00	-1.380E+00	-1.690E+00	-7.376E-02	 3.794E+01	 1.781E+02	-4.332E-03	 5.335E-02	 0.000E+00
  21.700	 1.070E+01	 5.198E-03	 1.772E-03	-1.994E-06	-3.332E+02	 2.006E+01	 2.168E+00	 4.686E+00	-2.002E-01	 1.164E-01	 4.812E+00	 5.540E+00	-4.432E-02	 7.298E-01	-1.625E+00	 7.681E-01	 4.828E+00	 1.705E+00	 7.964E-01	-7.730E-01	-2.479E+00	 6.547E-01	 4.445E+01	 1.879E+02	-5.409E-03	 3.300E-02	 0.000E+00
  21.750	 1.103E+01	-2.278E-02	 2.140E-03	-6.618E-05	-3.339E+02	 2.116E+01	 1.832E+00	 4.545E+00	-6.392E-01	 1.672E-01	 5.781E+00	 2.808E+01	-5.561E-01	 3.177E-01	-5.313E-01	-2.385E+00	 4.667E+00	 7.848E-01	 1.135E+00	 1.750E+00	-5.235E+00	 1.366E+00	 4.915E+01	 1.908E+02	-2.267E-03	-5.686E-02	 0.000E+00
  21.800	 1.097E+01	-3.269E-02	 5.142E-04	-1.280E-04	-3.342E+02	 1.719E+01	 7.933E-01	 4.573E+00	-5.198E-01	 4.200E-01	 6.068E+00	-2.386E+01	-8.997E-01	-1.146E-01	 9.238E-01	-3.807E+00	 3.915E+00	 4.895E-01	 9.495E-01	 4.521E+00	-7.835E+00	-6.949E-01	 4.773E+01	 1.848E+02	 3.559E-03	-9.464E-02	 0.000E+00
  21.850	 1.145E+01	-1.843E-02	-1.083E-03	-4.375E-05	-3.346E+02	 1.506E+01	 2.479E+00	 4.394E+00	 1.132E-01	 3.462E-01	 4.374E+00	-3.193E+01	-5.217E-01	-4.365E-01	 1.574E+00	-1.889E+00	 4.282E+00	 2.253E+00	 1.386E+00	 3.536E+00	-6.953E+00	-1.355E+00	 3.818E+01	 1.596E+02	 5.838E-03	-4.481E-02	 0.000E+00
  21.900	 1.172E+01	 2.922E-03	-7.254E-03	-6.722E-06	-3.352E+02	 1.521E+01	 6.527E-01	 4.291E+00	 6.059E-01	-2.244E-01	 4.146E+00	 1.512E+01	 5.273E-02	-1.294E+00	 4.694E+00	 9.615E-01	 2.665E+00	 3.438E+00	 1.675E+00	 3.003E-01	-4.899E+00	 7.718E-01	 2.089E+01	 1.389E+02	 1.964E-02	 3.887E-02	 0.000E+00
  21.950	 1.146E+01	 8.304E-03	-8.697E-03	-1.215E-05	-3.328E+02	 1.491E+01	 1.052E+00	 4.379E+00	 6.414E-01	-3.409E-01	 4.865E+00	 1.772E+01	 1.988E-01	-1.631E+00	 5.467E+00	 1.586E+00	 1.871E+00	 1.675E+00	-3.770E-01	-6.770E-01	-2.816E+00	 6.793E-01	 9.012E+00	 1.324E+02	 2.280E-02	 5.874E-02	 0.000E+00
  22.000	 1.159E+01	-5.418E-03	-7.550E-03	-1.191E-05	-3.340E+02	 1.392E+01	 1.231E+00	 4.324E+00	 1.593E-01	-2.232E-01	 5.146E+00	-2.554E+00	-1.022E-01	-1.739E+00	 5.483E+00	-1.979E-01	 7.035E-01	-1.140E+00	-2.440E+00	 3.162E-01	-9.739E-01	-3.577E-02	 7.728E+00	 1.337E+02	 2.165E-02	 9.431E-03	 0.000E+00
  22.050	 1.167E+01	-1.232E-02	-8.441E-03	-2.864E-05	-3.345E+02	 1.604E+01	 3.424E-01	 4.297E+00	-1.451E-01	-2.521E-01	 5.441E+00	 1.652E+01	-3.511E-01	-1.917E+00	 6.217E+00	-1.224E+00	-5.678E-01	-1.605E+00	-1.192E+00	-6.671E-03	-2.419E+00	 6.148E-01	 7.704E+00	 1.465E+02	 2.506E-02	-1.678E-02	 0.000E+00
  22.100	 1.160E+01	-1.687E-03	-8.161E-03	-7.931E-06	-3.350E+02	 1.461E+01	 1.618E+00	 4.327E+00	-6.685E-02	-8.334E-02	 6.228E+00	-3.819E+00	-4.091E-02	-1.769E+00	 5.626E+00	 2.433E-01	-6.923E-01	 1.427E+00	 2.684E+00	-2.376E+00	-6.884E+00	-2.722E-01	 1.220E+01	 1.600E+02	 2.274E-02	 1.898E-02	 0.000E+00
  22.150	 1.176E+01	 2.171E-02	-1.004E-02	-5.448E-05	-3.346E+02	 1.664E+01	 2.380E+00	 4.267E+00	 2.106E-01	 1.580E-01	 5.170E+00	-3.601E+01	 5.434E-01	-1.737E+00	 5.781E+00	 3.184E+00	-9.089E-01	 3.826E+00	 3.719E+00	-4.397E+00	-8.822E+00	-1.740E+00	 1.975E+01	 1.644E+02	 2.444E-02	 9.912E-02	 0.000E+00
  22.200	 1.185E+01	 3.251E-02	-9.377E-03	-1.163E-04	-3.336E+02	 1.978E+01	 1.367E+00	 4.229E+00	 1.972E-01	-6.313E-02	 3.966E+00	-4.283E-01	 6.526E-01	-1.366E+00	 4.756E+00	 4.180E+00	-1.569E+00	 2.043E+00	 2.710E-01	-2.997E+00	-6.317E+00	 1.044E-01	 2.131E+01	 1.716E+02	 2.102E-02	 1.330E-01	 0.000E+00
  22.250	 1.140E+01	 1.148E-02	-4.403E-03	-1.364E-05	-3.338E+02	 1.984E+01	 1.190E+00	 4.399E+00	-1.787E-01	-1.309E-01	 5.090E+00	 3.610E+01	 1.568E-01	-6.529E-01	 2.344E+00	 1.503E+00	-1.588E+00	-2.758E-01	-1.342E+00	 5.447E-01	-3.193E+00	 1.734E+00	 2.706E+01	 1.809E+02	 1.052E-02	 5.781E-02	 0.000E+00
  22.300	 1.137E+01	-1.606E-02	-5.975E-05	-3.232E-05	-3.353E+02	 2.208E+01	 1.975E+00	 4.409E+00	-5.749E-01	 1.963E-01	 5.930E+00	-3.099E+00	-4.650E-01	-1.487E-01	 6.857E-01	-1.780E+00	-1.028E+00	-5.400E-01	 8.784E-01	 1.855E+00	-1.348E+00	 3.439E-01	 3.764E+01	 1.928E+02	 2.675E-03	-3.965E-02	 0.000E+00
  22.350	 1.128E+01	-1.359E-02	 6.628E-04	-2.265E-05	-3.352E+02	 2.144E+01	 1.507E+00	 4.444E+00	-5.659E-01	 2.394E-01	 5.679E+00	 4.756E+00	-4.157E-01	 2.267E-01	-1.116E-01	-1.488E+00	-6.908E-01	-4.718E-01	 1.075E+00	 1.413E+00	-1.792E+00	 5.540E-01	 3.883E+01	 1.867E+02	 2.881E-04	-3.663E-02	 0.000E+00
  22.400	 1.078E+01	 1.221E-02	 1.414E-03	-1.461E-05	-3.352E+02	 2.398E+01	 2.879E+00	 4.650E+00	-2.035E-01	 1.876E-01	 6.452E+00	 7.909E+00	 2.981E-01	 7.022E-01	-1.643E+00	 2.166E+00	 8.693E-01	-1.228E+00	-3.005E+00	-4.526E-01	-6.408E+00	 7.443E-01	 3.760E+01	 1.809E+02	-5.439E-03	 5.861E-02	 0.000E+00
  22.450	 1.079E+01	 3.256E-02	-1.991E-03	-1.103E-04	-3.350E+02	 2.458E+01	 1.210E+00	 4.657E+00	 1.156E-01	 3.832E-01	 5.906E+00	-3.126E+01	 6.409E-01	 5.738E-01	-5.027E-01	 4.328E+00	 1.227E+00	-1.993E+00	-6.136E+00	-1.096E+00	-9.341E+00	-1.258E+00	 3.370E+01	 1.659E+02	 8.591E-04	 1.283E-01	 0.000E+00
  22.500	 1.089E+01	 1.692E-02	 1.075E-03	-2.739E-05	-3.328E+02	 2.372E+01	 1.143E+00	 4.605E+00	 1.981E-01	 2.251E-01	 4.217E+00	-2.693E+01	 2.783E-01	 8.983E-01	-1.829E+00	 2.457E+00	 2.184E+00	-2.085E+00	-5.414E+00	 7.382E-01	-8.632E+00	-1.280E+00	 1.993E+01	 1.508E+02	-5.157E-03	 7.905E-02	 0.000E+00
  22.550	 1.094E+01	-1.295E-02	 4.297E-03	-2.830E-05	-3.342E+02	 2.276E+01	 2.340E+00	 4.597E+00	 1.990E-01	-2.430E-01	 3.923E+00	 1.914E+01	-2.503E-01	 1.051E+00	-2.518E+00	-7.037E-01	 3.623E+00	-6.691E-01	-1.779E+00	 2.134E+00	-6.021E+00	 6.731E-01	 4.095E+00	 1.373E+02	-9.478E-03	-1.492E-02	 0.000E+00
  22.600	 1.073E+01	-1.125E-02	 2.405E-03	-1.818E-05	-3.341E+02	 2.270E+01	 1.649E+00	 4.693E+00	 2.813E-01	-4.604E-01	 5.086E+00	 2.551E+01	-3.569E-01	 7.873E-01	-1.472E+00	-9.327E-01	 4.122E+00	 7.653E-01	 1.202E+00	-3.125E-01	-2.414E+00	 9.972E-01	-8.597E+00	 1.293E+02	-4.710E-03	-2.118E-02	 0.000E+00
  22.650	 1.110E+01	-7.431E-04	 2.069E-03	-7.018E-07	-3.335E+02	 2.314E+01	 2.396E+00	 4.512E+00	 3.640E-01	-4.556E-01	 6.545E+00	 2.995E+01	-1.812E-01	 6.627E-01	-1.500E+00	 1.415E-01	 4.845E+00	 1.164E+00	 1.467E+00	-2.417E+00	-8.294E-01	 1.001E+00	-1.098E+01	 1.231E+02	-5.368E-03	 1.128E-02	 0.000E+00
  22.700	 1.117E+01	-1.179E-02	 8.680E-05	-1.843E-05	-3.338E+02	 2.216E+01	 7.209E-01	 4.479E+00	 2.693E-01	-2.451E-01	 7.771E+00	 3.111E+00	-5.241E-01	 1.565E-01	 2.520E-01	-1.490E+00	 4.310E+00	 7.731E-01	 2.645E-01	 1.833E+00	-5.274E+00	 8.474E-02	-2.729E+00	 1.351E+02	 1.648E-03	-2.553E-02	 0.000E+00
  22.750	 1.139E+01	-3.198E-02	 9.510E-04	-1.199E-04	-3.338E+02	 1.621E+01	 1.916E+00	 4.393E+00	 2.157E-01	 1.111E-01	 7.281E+00	-1.968E+01	-1.059E+00	-1.208E-01	 6.934E-01	-4.157E+00	 4.726E+00	 2.781E+00	 2.416E+00	 7.646E+00	-1.123E+01	-1.324E+00	 6.389E+00	 1.543E+02	 2.207E-03	-9.762E-02	 0.000E+00
  22.800	 1.144E+01	-3.792E-02	-8.074E-04	-1.711E-04	-3.350E+02	 1.090E+01	 1.787E+00	 4.386E+00	 1.460E-01	 2.002E-01	 5.885E+00	-1.898E+01	-1.004E+00	-6.339E-01	 2.219E+00	-4.390E+00	 3.787E+00	 5.628E+00	 6.112E+00	 7.441E+00	-1.284E+01	-1.018E+00	 1.792E+01	 1.719E+02	 7.940E-03	-1.107E-01	 0.000E+00
  22.850	 1.132E+01	-1.953E-02	-4.645E-03	-5.085E-05	-3.355E+02	 1.221E+01	 3.349E-01	 4.442E+00	-2.183E-01	 5.857E-02	 5.396E+00	 1.603E+01	-5.359E-01	-1.218E+00	 4.023E+00	-2.033E+00	 2.124E+00	 4.305E+00	 5.287E+00	 1.903E+00	-8.781E+00	 7.884E-01	 2.162E+01	 1.896E+02	 1.572E-02	-4.583E-02	 0.000E+00
[...]
  66.800	 1.270E+01	 2.617E-02	-6.161E-03	-7.026E-05	-3.364E+02	 2.625E+01	 3.514E+00	 3.960E+00	 1.422E-02	 2.099E-01	-1.074E+01	-2.397E+01	 8.717E-01	-9.016E-01	 3.033E+00	 4.044E+00	 4.068E+00	-1.168E+00	-6.104E+00	-2.779E+00	 3.301E+00	-1.160E+00	-1.102E+01	 1.778E+02	 1.325E-02	 1.167E-01	 0.000E+00
  66.850	 1.293E+01	 2.830E-02	-9.578E-03	-9.108E-05	-3.356E+02	 2.868E+01	 1.352E+00	 3.880E+00	-1.037E-01	-1.483E-01	-1.089E+01	 1.625E+00	 6.743E-01	-1.473E+00	 5.079E+00	 3.600E+00	 1.975E+00	-2.784E+00	-7.733E+00	-1.991E+00	 4.731E+00	 1.814E-01	-1.951E+01	 1.809E+02	 2.214E-02	 1.146E-01	 0.000E+00
  66.900	 1.335E+01	 1.539E-02	-7.529E-03	-2.765E-05	-3.341E+02	 3.480E+01	 3.222E+00	 3.753E+00	-2.202E-01	-1.122E-01	-1.169E+01	-1.625E+01	 3.095E-01	-1.464E+00	 4.465E+00	 1.862E+00	 1.872E+00	-5.431E+00	-1.124E+01	 1.848E+00	 8.125E+00	-8.600E-01	-2.289E+01	 1.762E+02	 1.842E-02	 6.810E-02	 0.000E+00
  66.950	 1.310E+01	-1.164E-03	-8.085E-03	-6.678E-06	-3.352E+02	 3.120E+01	 3.088E+00	 3.827E+00	-8.259E-02	-2.006E-01	-1.266E+01	-7.027E+00	-1.767E-01	-1.735E+00	 5.536E+00	-1.951E-01	 8.961E-01	-6.405E+00	-1.277E+01	 6.454E+00	 1.093E+01	-5.613E-01	-2.642E+01	 1.697E+02	 2.240E-02	 1.621E-02	 0.000E+00
  67.000	 1.276E+01	-9.351E-03	-8.247E-03	-1.811E-05	-3.336E+02	 2.477E+01	 1.273E+00	 3.932E+00	 7.454E-02	-3.695E-01	-1.232E+01	 1.719E+01	-5.443E-01	-1.798E+00	 5.867E+00	-1.505E+00	-1.014E+00	-4.503E+00	-9.015E+00	 8.085E+00	 8.644E+00	 5.855E-01	-2.792E+01	 1.633E+02	 2.399E-02	-1.594E-02	 0.000E+00
  67.050	 1.229E+01	-1.856E-02	-5.741E-03	-4.509E-05	-3.336E+02	 2.238E+01	 2.579E+00	 4.082E+00	 1.588E-01	-1.872E-01	-1.132E+01	-9.468E-01	-8.304E-01	-1.510E+00	 4.744E+00	-2.684E+00	-9.012E-01	-1.505E+00	-3.939E+00	 8.363E+00	 5.941E+00	-2.708E-01	-1.903E+01	 1.615E+02	 1.849E-02	-4.897E-02	 0.000E+00
  67.100	 1.198E+01	-2.103E-02	-6.578E-03	-5.875E-05	-3.331E+02	 2.034E+01	 1.823E+00	 4.187E+00	 3.443E-01	 8.291E-03	-1.156E+01	-5.979E+00	-9.948E-01	-1.436E+00	 5.125E+00	-3.092E+00	-1.560E+00	 6.722E-01	-7.141E-01	 8.913E+00	 5.589E+00	-5.286E-01	-8.996E+00	 1.607E+02	 2.115E-02	-5.631E-02	 0.000E+00
  67.150	 1.160E+01	-2.363E-02	-2.634E-03	-6.514E-05	-3.316E+02	 1.816E+01	 1.233E+00	 4.323E+00	 2.047E-01	 1.070E-02	-1.165E+01	 3.824E+00	-1.236E+00	-7.346E-01	 2.618E+00	-3.779E+00	-1.647E+00	 1.413E+00	 1.605E+00	 8.882E+00	 5.715E+00	 3.598E-01	 4.950E+00	 1.639E+02	 1.070E-02	-7.310E-02	 0.000E+00
  67.200	 1.168E+01	-4.153E-02	 4.103E-04	-1.895E-04	-3.329E+02	 1.522E+01	 1.233E+00	 4.292E+00	-5.977E-02	 2.584E-01	-1.195E+01	-2.006E+01	-1.834E+00	-2.922E-01	 1.360E+00	-6.483E+00	-1.148E+00	 2.835E+00	 6.121E+00	 9.304E+00	 7.858E+00	-4.263E-01	 1.676E+01	 1.728E+02	 4.905E-03	-1.452E-01	 0.000E+00
  67.250	 1.196E+01	-6.411E-02	 3.494E-03	-4.556E-04	-3.323E+02	 1.057E+01	 3.869E-01	 4.188E+00	-2.826E-01	 3.541E-01	-1.332E+01	-2.901E+01	-2.320E+00	 1.429E-01	 1.251E-01	-9.114E+00	-9.951E-01	 4.753E+00	 1.165E+01	 8.846E+00	 1.132E+01	-6.170E-01	 2.299E+01	 1.782E+02	-1.872E-04	-2.217E-01	 0.000E+00
  67.300	 1.197E+01	-6.479E-02	 7.204E-03	-4.728E-04	-3.335E+02	 6.873E+00	 9.042E-01	 4.179E+00	-2.315E-01	 6.108E-02	-1.333E+01	 1.980E+01	-2.110E+00	 8.343E-01	-2.222E+00	-8.528E+00	-7.475E-02	 6.476E+00	 1.454E+01	 6.544E+00	 1.241E+01	 1.388E+00	 2.264E+01	 1.743E+02	-1.015E-02	-2.202E-01	 0.000E+00
  67.350	 1.185E+01	-3.327E-02	 4.842E-03	-1.267E-04	-3.351E+02	 8.330E+00	 1.670E+00	 4.225E+00	 2.812E-02	 3.661E-02	-1.227E+01	 1.448E+01	-1.165E+00	 9.042E-01	-2.059E+00	-4.237E+00	 1.387E+00	 7.212E+00	 1.353E+01	 1.047E+00	 1.016E+01	 1.014E+00	 1.979E+01	 1.771E+02	-8.294E-03	-1.110E-01	 0.000E+00
  67.400	 1.157E+01	-1.458E-03	 2.809E-03	-1.103E-06	-3.340E+02	 8.390E+00	 1.649E-01	 4.332E+00	 1.346E-01	 1.285E-01	-1.234E+01	-1.480E+00	-2.627E-01	 9.713E-01	-2.145E+00	-1.004E-01	 1.614E+00	 6.430E+00	 1.080E+01	-3.594E+00	 7.988E+00	-3.940E-02	 1.769E+01	 1.740E+02	-7.356E-03	 1.801E-03	 0.000E+00
  67.450	 1.170E+01	 4.942E-03	 3.107E-03	-3.734E-06	-3.353E+02	 1.126E+01	 1.044E+00	 4.286E+00	 4.275E-02	 3.248E-02	-1.255E+01	-3.634E+00	 2.476E-01	 1.025E+00	-2.465E+00	 1.605E+00	 2.990E+00	 4.594E+00	 7.375E+00	-5.800E+00	 6.057E+00	-1.384E-01	 1.297E+01	 1.796E+02	-8.880E-03	 4.335E-02	 0.000E+00
  67.500	 1.161E+01	 1.192E-02	 6.160E-04	-1.220E-05	-3.365E+02	 1.268E+01	 6.329E-01	 4.325E+00	-1.651E-01	 8.913E-03	-1.297E+01	-2.326E+01	 6.484E-01	 7.420E-01	-1.234E+00	 3.082E+00	 3.428E+00	 2.997E+00	 5.398E+00	-9.434E+00	 7.599E+00	-7.659E-01	 6.343E+00	 1.790E+02	-2.986E-03	 7.920E-02	 0.000E+00
  67.550	 1.163E+01	 3.543E-02	-6.615E-04	-1.238E-04	-3.367E+02	 1.706E+01	 7.195E-01	 4.320E+00	-1.645E-01	-1.887E-01	-1.349E+01	 3.273E+00	 1.305E+00	 6.182E-01	-1.234E+00	 6.025E+00	 3.788E+00	 1.913E+00	 4.059E+00	-1.568E+01	 1.286E+01	 1.590E-01	 2.509E+00	 1.723E+02	-2.988E-03	 1.551E-01	 0.000E+00
  67.600	 1.159E+01	 5.737E-02	-4.989E-03	-3.409E-04	-3.371E+02	 2.232E+01	 2.295E+00	 4.348E+00	-3.631E-02	-5.006E-01	-1.230E+01	 4.393E+01	 1.857E+00	 2.512E-02	 7.376E-01	 8.619E+00	 4.770E+00	 4.038E-01	-7.363E-03	-1.808E+01	 1.446E+01	 1.957E+00	-2.753E-01	 1.628E+02	 5.595E-03	 2.304E-01	 0.000E+00
  67.650	 1.134E+01	 5.849E-02	-7.411E-03	-3.543E-04	-3.357E+02	 2.476E+01	 8.989E-01	 4.476E+00	 1.506E-01	-1.850E-01	-1.099E+01	 1.839E+00	 1.773E+00	-4.152E-01	 2.188E+00	 8.503E+00	 3.863E+00	-1.900E+00	-5.618E+00	-1.273E+01	 1.054E+01	 1.925E-01	 7.780E+00	 1.633E+02	 1.207E-02	 2.383E-01	 0.000E+00
  67.700	 1.121E+01	 4.784E-02	-6.674E-03	-2.378E-04	-3.363E+02	 2.687E+01	 2.626E+00	 4.519E+00	 2.836E-01	 1.212E-01	-1.181E+01	-2.403E+01	 1.440E+00	-6.294E-01	 2.371E+00	 6.920E+00	 4.404E+00	-2.200E+00	-7.905E+00	-7.007E+00	 7.130E+00	-1.053E+00	 2.078E+01	 1.636E+02	 1.155E-02	 1.960E-01	 0.000E+00
  67.750	 1.121E+01	 4.261E-02	-1.070E-02	-1.966E-04	-3.372E+02	 2.758E+01	 2.316E+00	 4.516E+00	 1.693E-01	-3.971E-02	-1.150E+01	 2.116E+01	 1.158E+00	-1.431E+00	 5.196E+00	 5.800E+00	 3.343E+00	-1.689E+00	-7.518E+00	-4.799E+00	 5.458E+00	 1.033E+00	 2.776E+01	 1.670E+02	 2.322E-02	 1.732E-01	 0.000E+00
  67.800	 1.111E+01	 3.063E-02	-9.438E-03	-1.033E-04	-3.345E+02	 2.715E+01	 6.975E-01	 4.537E+00	-1.095E-01	 1.373E-01	-1.063E+01	 1.095E+01	 7.294E-01	-1.516E+00	 4.926E+00	 3.918E+00	 1.394E+00	-3.971E+00	-9.380E+00	-2.013E+00	 6.287E+00	 9.134E-01	 4.287E+01	 1.771E+02	 2.146E-02	 1.260E-01	 0.000E+00
  67.850	 1.148E+01	 6.393E-03	-7.412E-03	-8.119E-06	-3.359E+02	 2.650E+01	 3.588E+00	 4.385E+00	-3.929E-01	 4.394E-01	-1.134E+01	-2.405E+01	 1.042E-01	-1.587E+00	 4.852E+00	 8.205E-01	 1.557E+00	-7.397E+00	-1.346E+01	 3.181E+00	 1.050E+01	-4.747E-01	 4.998E+01	 1.757E+02	 1.945E-02	 4.107E-02	 0.000E+00
  67.900	 1.114E+01	-1.049E-03	-9.777E-03	-8.831E-06	-3.349E+02	 3.030E+01	 1.161E+00	 4.519E+00	-2.046E-01	 7.761E-02	-1.185E+01	 1.289E+01	-2.920E-01	-1.942E+00	 6.483E+00	-4.281E-01	-3.969E-01	-8.373E+00	-1.519E+01	 7.748E+00	 1.351E+01	 1.396E+00	 4.505E+01	 1.679E+02	 2.695E-02	 1.322E-02	 0.000E+00
  67.950	 1.090E+01	-6.133E-03	-7.068E-03	-8.913E-06	-3.335E+02	 2.463E+01	 1.967E+00	 4.615E+00	 1.945E-01	-1.257E-03	-1.057E+01	 1.773E+01	-6.587E-01	-1.602E+00	 5.028E+00	-1.590E+00	-8.131E-01	-4.609E+00	-1.049E+01	 1.083E+01	 1.162E+01	 1.320E+00	 4.245E+01	 1.633E+02	 2.021E-02	-1.416E-02	 0.000E+00
  68.000	 1.098E+01	-1.978E-02	-6.571E-03	-5.302E-05	-3.337E+02	 2.025E+01	 2.928E+00	 4.582E+00	 4.025E-01	 1.909E-01	-1.065E+01	-2.467E+01	-8.902E-01	-1.566E+00	 5.236E+00	-2.808E+00	-1.109E+00	 5.938E-02	-3.477E+00	 1.110E+01	 8.211E+00	-8.106E-01	 4.046E+01	 1.616E+02	 2.098E-02	-4.887E-02	 0.000E+00
  68.050	 1.107E+01	-2.284E-02	-5.717E-03	-6.662E-05	-3.316E+02	 1.752E+01	 1.106E+00	 4.559E+00	 8.518E-02	-1.642E-02	-1.134E+01	 9.859E+00	-1.060E+00	-1.250E+00	 4.554E+00	-3.327E+00	-2.220E+00	 3.090E-01	-5.719E-01	 8.957E+00	 5.552E+00	 3.726E-01	 3.416E+01	 1.714E+02	 1.906E-02	-6.260E-02	 0.000E+00
  68.100	 1.147E+01	-3.974E-02	 1.030E-03	-1.768E-04	-3.322E+02	 1.662E+01	 1.155E+00	 4.412E+00	-3.617E-01	-2.941E-01	-9.790E+00	 4.860E+01	-1.613E+00	-3.117E-01	 1.003E+00	-5.877E+00	-1.908E+00	-6.100E-01	 1.162E+00	 9.744E+00	 6.213E+00	 2.220E+00	 3.011E+01	 1.746E+02	 3.011E-03	-1.342E-01	 0.000E+00
  68.150	 1.178E+01	-6.089E-02	 2.850E-03	-4.093E-04	-3.341E+02	 1.486E+01	 1.089E+00	 4.290E+00	-3.384E-01	-8.797E-02	-8.099E+00	 1.272E+01	-2.136E+00	-5.255E-02	 5.754E-01	-8.585E+00	-1.353E+00	 2.015E+00	 6.988E+00	 1.009E+01	 8.872E+00	 5.514E-01	 2.915E+01	 1.737E+02	 1.085E-03	-2.117E-01	 0.000E+00
  68.200	 1.200E+01	-5.450E-02	 3.817E-03	-3.259E-04	-3.340E+02	 1.247E+01	 7.990E-01	 4.198E+00	-2.261E-02	 7.732E-03	-8.632E+00	-2.909E+01	-2.012E+00	 2.961E-01	-4.366E-01	-7.700E+00	-4.399E-01	 5.542E+00	 1.198E+01	 7.164E+00	 1.055E+01	-8.245E-01	 2.957E+01	 1.610E+02	-2.506E-03	-1.922E-01	 0.000E+00
  68.250	 1.192E+01	-3.512E-02	 4.343E-03	-1.381E-04	-3.338E+02	 1.044E+01	 6.382E-01	 4.228E+00	 2.957E-01	-2.040E-01	-9.162E+00	 1.205E+01	-1.406E+00	 7.445E-01	-1.670E+00	-4.923E+00	 2.010E-01	 6.917E+00	 1.268E+01	 3.854E+00	 9.790E+00	 6.339E-01	 3.064E+01	 1.537E+02	-6.710E-03	-1.211E-01	 0.000E+00
  68.300	 1.236E+01	-1.734E-02	 4.554E-03	-3.834E-05	-3.339E+02	 1.284E+01	 1.884E+00	 4.084E+00	 3.123E-01	-2.725E-01	-8.096E+00	 3.135E+01	-7.248E-01	 1.040E+00	-2.555E+00	-2.104E+00	 1.831E+00	 5.980E+00	 1.007E+01	 4.527E-01	 6.565E+00	 1.525E+00	 3.666E+01	 1.550E+02	-9.767E-03	-5.050E-02	 0.000E+00
  68.350	 1.222E+01	-1.556E-03	 3.238E-03	-2.008E-06	-3.344E+02	 1.699E+01	 1.193E+00	 4.124E+00	 1.815E-01	-2.352E-02	-7.012E+00	 1.730E+01	-2.319E-01	 1.056E+00	-2.409E+00	 8.413E-03	 2.683E+00	 4.333E+00	 7.124E+00	-2.382E+00	 4.045E+00	 8.501E-01	 4.731E+01	 1.610E+02	-8.458E-03	 6.010E-03	 0.000E+00
  68.400	 1.232E+01	 3.589E-03	 3.123E-03	-1.973E-06	-3.342E+02	 1.706E+01	 1.799E+00	 4.081E+00	 7.489E-02	 6.102E-02	-6.423E+00	 1.558E+01	 1.101E-01	 1.036E+00	-2.495E+00	 1.150E+00	 3.924E+00	 4.494E+00	 7.433E+00	-5.697E+00	 5.866E+00	 1.157E+00	 5.854E+01	 1.691E+02	-8.788E-03	 3.329E-02	 0.000E+00
  68.450	 1.185E+01	 8.542E-03	 1.940E-03	-6.806E-06	-3.349E+02	 1.796E+01	 2.583E+00	 4.233E+00	-1.991E-01	 1.384E-01	-4.856E+00	 3.190E+01	 5.268E-01	 7.934E-01	-1.812E+00	 2.436E+00	 4.540E+00	 4.015E+00	 6.535E+00	-8.958E+00	 7.434E+00	 2.027E+00	 6.822E+01	 1.750E+02	-6.171E-03	 6.098E-02	 0.000E+00
  68.500	 1.199E+01	 1.948E-02	-1.343E-03	-3.487E-05	-3.350E+02	 1.878E+01	 9.429E-01	 4.178E+00	-3.202E-01	 3.705E-01	-3.434E+00	 4.855E+00	 8.082E-01	 3.194E-01	-1.420E-01	 3.799E+00	 4.147E+00	 1.341E+00	 2.271E+00	-9.948E+00	 6.761E+00	 1.047E+00	 7.701E+01	 1.832E+02	 1.201E-03	 1.012E-01	 0.000E+00
  68.550	 1.224E+01	 2.282E-02	-2.363E-03	-4.904E-05	-3.349E+02	 2.017E+01	 1.837E+00	 4.094E+00	-3.222E-01	 4.360E-01	-4.076E+00	-4.808E+00	 9.551E-01	-7.538E-03	 5.609E-01	 4.276E+00	 4.649E+00	-4.644E-01	-1.420E+00	-8.873E+00	 5.541E+00	 3.958E-01	 7.774E+01	 1.828E+02	 3.505E-03	 1.140E-01	 0.000E+00
  68.600	 1.194E+01	 2.478E-02	-6.036E-03	-6.073E-05	-3.356E+02	 2.144E+01	 1.443E+00	 4.196E+00	-1.274E-01	 9.850E-02	-3.845E+00	 2.303E+01	 1.022E+00	-7.152E-01	 2.937E+00	 4.500E+00	 4.028E+00	 1.462E-01	-2.445E+00	-6.840E+00	 3.694E+00	 1.646E+00	 6.650E+01	 1.739E+02	 1.323E-02	 1.225E-01	 0.000E+00
  68.650	 1.178E+01	 2.865E-02	-8.253E-03	-8.589E-05	-3.342E+02	 2.117E+01	 1.348E+00	 4.257E+00	 1.492E-01	 8.618E-03	-2.732E+00	 1.111E+01	 9.081E-01	-1.140E+00	 4.200E+00	 4.470E+00	 3.355E+00	 1.841E-02	-3.950E+00	-4.300E+00	 2.373E+00	 8.638E-01	 5.520E+01	 1.664E+02	 1.865E-02	 1.304E-01	 0.000E+00
  68.700	 1.153E+01	 2.648E-02	-8.726E-03	-7.207E-05	-3.344E+02	 2.120E+01	 1.829E+00	 4.348E+00	 2.675E-01	-2.262E-02	-2.543E+00	-1.106E+01	 9.126E-01	-1.391E+00	 4.739E+00	 4.400E+00	 2.571E+00	-1.888E+00	-7.027E+00	-2.581E+00	 4.122E+00	-1.654E-01	 4.464E+01	 1.577E+02	 2.033E-02	 1.298E-01	 0.000E+00
  68.750	 1.127E+01	 2.219E-02	-1.031E-02	-5.710E-05	-3.342E+02	 2.227E+01	 1.310E+00	 4.461E+00	 7.414E-02	-1.980E-01	-2.671E+00	 9.911E+00	 4.519E-01	-1.744E+00	 5.905E+00	 2.955E+00	 1.404E+00	-3.599E+00	-8.446E+00	-7.715E-01	 5.009E+00	 5.413E-01	 3.562E+01	 1.550E+02	 2.511E-02	 1.021E-01	 0.000E+00
  68.800	 1.079E+01	 1.126E-02	-1.010E-02	-2.090E-05	-3.343E+02	 2.458E+01	 4.618E-01	 4.663E+00	-1.402E-01	-3.210E-01	-9.624E-01	 3.032E+01	 6.365E-02	-1.901E+00	 6.261E+00	 1.283E+00	 4.529E-02	-3.167E+00	-6.612E+00	 8.206E-01	 3.107E+00	 1.383E+00	 2.830E+01	 1.551E+02	 2.611E-02	 6.173E-02	 0.000E+00
  68.850	 1.095E+01	-3.958E-03	-7.918E-03	-1.037E-05	-3.334E+02	 1.910E+01	 2.648E+00	 4.605E+00	 3.604E-02	-6.886E-02	-8.274E-01	-8.695E+00	-2.005E-01	-1.739E+00	 5.498E+00	-2.517E-01	 8.673E-03	-3.304E-01	-2.099E+00	 2.174E+00	-3.248E-01	-6.484E-01	 3.371E+01	 1.594E+02	 2.243E-02	 1.380E-02	 0.000E+00
  68.900	 1.120E+01	-1.764E-03	-8.103E-03	-7.668E-06	-3.344E+02	 1.843E+01	 1.997E+00	 4.506E+00	 1.440E-01	-7.429E-02	-1.958E+00	-1.523E+01	-2.170E-01	-1.702E+00	 5.537E+00	-4.209E-02	-1.076E+00	 5.140E-01	-9.311E-01	 2.382E+00	-8.294E-01	-7.028E-01	 3.475E+01	 1.548E+02	 2.258E-02	 1.796E-02	 0.000E+00
  68.950	 1.105E+01	 3.240E-03	-7.506E-03	-5.751E-06	-3.333E+02	 1.898E+01	 4.213E-01	 4.552E+00	 1.457E-01	-3.491E-01	-1.358E+00	 3.144E+01	-3.248E-01	-1.400E+00	 4.759E+00	-2.940E-02	-2.024E+00	-6.088E-01	-2.390E+00	 3.993E+00	 1.039E+00	 1.523E+00	 3.363E+01	 1.547E+02	 2.010E-02	 2.389E-02	 0.000E+00
  69.000	 1.119E+01	-1.416E-02	-3.000E-03	-2.765E-05	-3.342E+02	 1.892E+01	 2.210E+00	 4.492E+00	 1.911E-01	-1.787E-01	 4.617E-01	 1.758E+01	-6.046E-01	-8.411E-01	 2.688E+00	-1.826E+00	-1.284E+00	 5.413E-01	-4.355E-01	 6.447E+00	 3.015E+00	 1.098E+00	 4.574E+01	 1.564E+02	 1.042E-02	-3.158E-02	 0.000E+00
  69.050	 1.141E+01	-2.193E-02	-2.728E-03	-6.069E-05	-3.349E+02	 1.939E+01	 1.146E+00	 4.416E+00	 5.752E-02	 3.235E-01	 2.731E-01	-2.346E+01	-7.136E-01	-6.696E-01	 2.640E+00	-2.546E+00	-1.621E+00	 2.110E+00	 2.997E+00	 5.175E+00	 2.528E+00	-8.305E-01	 6.159E+01	 1.625E+02	 1.083E-02	-5.656E-02	 0.000E+00
  69.100	 1.131E+01	-1.178E-02	-5.696E-04	-1.701E-05	-3.334E+02	 2.009E+01	 1.710E+00	 4.467E+00	-2.084E-01	 3.959E-01	-1.161E+00	-2.357E+01	-6.601E-01	-5.077E-02	 6.546E-01	-1.775E+00	-8.051E-01	 1.365E+00	 2.948E+00	 2.641E+00	 5.800E-01	-3.886E-01	 6.878E+01	 1.772E+02	 3.357E-03	-3.237E-02	 0.000E+00
  69.150	 1.109E+01	-1.382E-02	 2.577E-03	-2.536E-05	-3.332E+02	 1.906E+01	 1.658E+00	 4.556E+00	-3.453E-01	 1.695E-01	-9.976E-01	 3.172E+01	-5.152E-01	 5.849E-01	-1.318E+00	-1.538E+00	-1.874E-01	 7.288E-01	 2.070E+00	 2.628E+00	-3.765E-01	 1.627E+00	 6.961E+01	 1.789E+02	-4.844E-03	-3.364E-02	 0.000E+00
  69.200	 1.057E+01	-1.434E-02	 3.892E-03	-2.957E-05	-3.344E+02	 1.991E+01	 2.784E+00	 4.779E+00	-1.967E-01	 1.162E-01	 6.734E-01	 1.750E+01	-4.044E-01	 8.738E-01	-2.150E+00	-1.156E+00	 1.496E+00	 2.087E+00	 3.430E+00	 1.530E+00	 2.607E-01	 1.221E+00	 6.506E+01	 1.789E+02	-8.276E-03	-2.884E-02	 0.000E+00
  69.250	 1.090E+01	 9.635E-04	 1.477E-03	-6.523E-07	-3.349E+02	 1.798E+01	 1.157E+00	 4.631E+00	 2.283E-02	 2.427E-01	 2.837E-01	-2.383E+01	-2.012E-01	 8.145E-01	-1.414E+00	 3.778E-01	 1.791E+00	 3.361E+00	 4.938E+00	-1.483E+00	 1.794E+00	-6.550E-01	 5.834E+01	 1.696E+02	-3.976E-03	 1.982E-02	 0.000E+00
  69.300	 1.077E+01	 8.513E-03	 2.291E-03	-7.155E-06	-3.333E+02	 1.791E+01	 5.045E-01	 4.674E+00	 4.629E-02	 8.332E-02	-8.595E-01	-1.403E+01	-6.530E-02	 1.039E+00	-2.295E+00	 1.042E+00	 2.464E+00	 2.897E+00	 4.341E+00	-2.923E+00	 1.850E+00	-4.802E-01	 4.881E+01	 1.638E+02	-7.367E-03	 3.899E-02	 0.000E+00
  69.350	 1.085E+01	-3.169E-03	 4.045E-03	-4.529E-06	-3.341E+02	 1.937E+01	 2.469E+00	 4.651E+00	-7.031E-02	-2.191E-01	-8.236E-01	 2.407E+01	-1.186E-01	 1.083E+00	-2.759E+00	 7.175E-02	 4.210E+00	 1.734E+00	 2.525E+00	-1.679E+00	-5.521E-01	 9.260E-01	 3.525E+01	 1.616E+02	-1.036E-02	 6.371E-03	 0.000E+00
  69.400	 1.080E+01	-7.767E-03	 2.255E-03	-1.139E-05	-3.349E+02	 2.117E+01	 8.519E-01	 4.676E+00	-1.016E-01	-1.810E-01	 4.603E-02	 4.914E+00	-1.640E-01	 7.377E-01	-1.454E+00	-2.278E-01	 3.912E+00	 3.542E-01	 4.798E-01	-1.063E+00	-2.136E+00	 2.857E-02	 2.903E+01	 1.582E+02	-4.732E-03	-2.056E-03	 0.000E+00
  69.450	 1.096E+01	 6.431E-03	 3.107E-04	-3.881E-06	-3.351E+02	 2.071E+01	 1.636E+00	 4.595E+00	 1.249E-01	-1.908E-01	-7.704E-02	-1.345E+01	 2.178E-01	 4.576E-01	-6.997E-01	 1.654E+00	 4.458E+00	 2.512E-01	-3.555E-01	-3.893E+00	 4.760E-01	-6.685E-01	 2.287E+01	 1.440E+02	-1.497E-03	 4.764E-02	 0.000E+00
  69.500	 1.112E+01	 2.129E-02	-3.355E-03	-4.545E-05	-3.350E+02	 2.014E+01	 1.824E+00	 4.510E+00	 3.090E-01	-3.591E-01	 5.228E-01	 1.586E+01	 5.061E-01	-1.477E-01	 1.179E+00	 3.172E+00	 4.169E+00	 4.644E-01	-1.116E+00	-5.472E+00	 2.206E+00	 5.486E-01	 2.064E+01	 1.369E+02	 6.274E-03	 9.515E-02	 0.000E+00
  69.550	 1.074E+01	 1.159E-02	-3.817E-03	-1.402E-05	-3.332E+02	 1.708E+01	 9.869E-01	 4.664E+00	 2.839E-01	-4.984E-02	 4.916E-01	-2.506E+01	 2.298E-01	-4.470E-01	 1.888E+00	 1.647E+00	 3.187E+00	-5.522E-01	-2.496E+00	-1.969E+00	-2.295E-01	-1.052E+00	 3.219E+01	 1.391E+02	 8.902E-03	 5.797E-02	 0.000E+00
  69.600	 1.021E+01	-7.319E-03	-2.244E-03	-1.260E-05	-3.355E+02	 1.804E+01	 3.096E+00	 4.913E+00	 1.119E-01	 2.369E-01	-2.007E+00	-4.849E+01	 8.837E-02	-6.759E-01	 2.024E+00	 1.937E-01	 3.574E+00	-1.444E+00	-3.288E+00	-9.315E-02	-4.690E-01	-2.183E+00	 3.934E+01	 1.454E+02	 7.551E-03	 8.434E-03	 0.000E+00
  69.650	 1.005E+01	 1.281E-02	-9.740E-03	-2.357E-05	-3.369E+02	 2.183E+01	 1.210E+00	 4.999E+00	-5.429E-02	-2.460E-01	-2.775E+00	 3.592E+01	 3.608E-01	-1.718E+00	 5.953E+00	 2.135E+00	 2.011E+00	-1.874E+00	-4.578E+00	-2.794E+00	 1.639E+00	 1.743E+00	 3.882E+01	 1.495E+02	 2.493E-02	 6.948E-02	 0.000E+00
  69.700	 9.929E+00	 2.854E-02	-1.130E-02	-9.630E-05	-3.338E+02	 1.995E+01	-1.293E+00	 5.058E+00	 4.724E-03	-2.996E-01	 4.780E-01	 5.709E+01	 3.887E-01	-1.895E+00	 6.270E+00	 3.096E+00	-7.191E-02	-1.908E+00	-5.244E+00	-1.911E+00	 1.694E+00	 2.679E+00	 4.811E+01	 1.576E+02	 2.675E-02	 1.107E-01	 0.000E+00
  69.750	 9.875E+00	-3.302E-03	-7.013E-03	-7.970E-06	-3.336E+02	 1.861E+01	 3.219E+00	 5.084E+00	 2.024E-02	 4.256E-01	 7.344E-01	-4.139E+01	-3.755E-02	-1.677E+00	 5.041E+00	-5.117E-02	 9.410E-01	-8.311E-01	-3.500E+00	 2.833E+00	 1.005E+00	-1.480E+00	 6.254E+01	 1.650E+02	 1.987E-02	 1.529E-02	 0.000E+00
  69.800	 1.026E+01	-1.367E-02	-8.025E-03	-3.149E-05	-3.346E+02	 2.228E+01	 2.789E+00	 4.916E+00	-2.615E-01	 5.679E-01	-1.695E+00	-2.969E+01	-3.513E-01	-1.854E+00	 5.994E+00	-1.422E+00	-9.618E-02	-4.768E-01	-1.554E+00	 2.868E+00	-2.961E-01	-1.320E+00	 6.864E+01	 1.721E+02	 2.407E-02	-2.548E-02	 0.000E+00
  69.850	 1.032E+01	 1.725E-03	-7.179E-03	-4.805E-06	-3.337E+02	 2.138E+01	-1.536E-01	 4.875E+00	-4.494E-01	 1.196E-01	-2.212E+00	 2.007E+01	-1.865E-01	-1.505E+00	 4.763E+00	 7.313E-02	-2.010E+00	-1.099E+00	-1.251E+00	 2.529E-01	-2.525E+00	 1.207E+00	 6.205E+01	 1.781E+02	 1.943E-02	 1.833E-02	 0.000E+00
  69.900	 1.009E+01	-6.551E-03	-5.529E-03	-1.021E-05	-3.338E+02	 1.920E+01	 2.926E+00	 4.992E+00	-1.523E-01	 1.336E-01	-1.568E+00	-4.160E+00	-3.633E-01	-1.252E+00	 4.049E+00	-8.549E-01	-6.931E-01	 2.107E-01	-2.302E-01	 2.579E+00	-6.324E-01	-2.579E-01	 5.016E+01	 1.699E+02	 1.620E-02	-4.540E-03	 0.000E+00
  69.950	 1.000E+01	-2.525E-02	-3.483E-03	-7.956E-05	-3.331E+02	 1.715E+01	 8.916E-01	 5.029E+00	 2.350E-01	-6.539E-02	-2.261E+00	-1.720E+01	-8.785E-01	-9.650E-01	 3.351E+00	-3.176E+00	-2.023E+00	 1.721E+00	 1.839E+00	 7.384E+00	 4.169E+00	-6.955E-01	 3.735E+01	 1.531E+02	 1.336E-02	-6.869E-02	 0.000E+00
  70.000	 9.633E+00	-2.593E-02	 2.693E-04	-7.894E-05	-3.335E+02	 1.580E+01	 1.277E+00	 5.218E+00	 1.577E-01	-4.879E-01	-1.261E+00	 4.176E+01	-9.584E-01	-1.946E-01	 8.602E-01	-3.331E+00	-1.657E+00	 1.349E+00	 2.257E+00	 7.062E+00	 3.747E+00	 1.689E+00	 2.616E+01	 1.488E+02	 3.165E-03	-7.829E-02	 0.000E+00
