
This summary information was generated by ElastoDyn (v1.03.00a-bjj, 9-Jul-2015) on 10-Jul-2015 at 11:03:40.


Turbine features:

            Upwind, three-bladed rotor with rigid hub.
            The model has 22 of 24 DOFs active (enabled) at start-up.
 Enabled    Platform horizontal surge translation DOF 
 Enabled    Platform horizontal sway translation DOF 
 Enabled    Platform vertical heave translation DOF 
 Enabled    Platform roll tilt rotation DOF 
 Enabled    Platform pitch tilt rotation DOF 
 Enabled    Platform yaw rotation DOF 
 Enabled    1st tower fore-aft bending mode DOF 
 Enabled    1st tower side-to-side bending mode DOF 
 Enabled    2nd tower fore-aft bending mode DOF 
 Enabled    2nd tower side-to-side bending mode DOF 
 Enabled    Nacelle yaw DOF 
 Disabled   Rotor-furl DOF 
 Enabled    Variable speed generator DOF 
 Enabled    Drivetrain rotational-flexibility DOF 
 Disabled   Tail-furl DOF 
 Enabled    1st flapwise bending-mode DOF of blade 1 
 Enabled    1st edgewise bending-mode DOF of blade 1 
 Enabled    2nd flapwise bending-mode DOF of blade 1 
 Enabled    1st flapwise bending-mode DOF of blade 2 
 Enabled    1st edgewise bending-mode DOF of blade 2 
 Enabled    2nd flapwise bending-mode DOF of blade 2 
 Enabled    1st flapwise bending-mode DOF of blade 3 
 Enabled    1st edgewise bending-mode DOF of blade 3 
 Enabled    2nd flapwise bending-mode DOF of blade 3 


Time steps:

    Structural            (s)        0.01250000


Some calculated parameters:

    Hub-Height            (m)            90.000
    Flexible Tower Length (m)            77.600
    Flexible Blade Length (m)            61.500


Rotor mass properties:

    Rotor Mass            (kg)       110000.234
    Rotor Inertia         (kg-m^2) 38759232.000
                                        Blade 1      Blade 2      Blade 3
                                        -------      -------      -------
    Mass                  (kg)        17740.082    17740.082    17740.082
    Second Mass Moment    (kg-m^2) 11776048.000 11776048.000 11776048.000
    First Mass Moment     (kg-m)     363231.312   363231.312   363231.312
    Center of Mass        (m)            20.475       20.475       20.475


Additional mass properties:

    Tower-top Mass        (kg)       350000.250
    Tower Mass            (kg)       249705.219
    Platform Mass         (kg)      7466330.000
    Mass Incl. Platform   (kg)      8066035.500


Interpolated tower properties:

Node  TwFract   HNodes  DHNodes  TMassDen    FAStiff    SSStiff
 (-)      (-)      (m)      (m)    (kg/m)     (Nm^2)     (Nm^2)
   1    0.029    2.282    4.565  4572.376  5.785E+11  5.785E+11
   2    0.088    6.847    4.565  4383.129  5.278E+11  5.278E+11
   3    0.147   11.412    4.565  4199.153  4.815E+11  4.815E+11
   4    0.206   15.976    4.565  4017.153  4.369E+11  4.369E+11
   5    0.265   20.541    4.565  3841.083  3.970E+11  3.970E+11
   6    0.324   25.106    4.565  3667.647  3.590E+11  3.590E+11
   7    0.382   29.671    4.565  3498.165  3.238E+11  3.238E+11
   8    0.441   34.235    4.565  3333.294  2.917E+11  2.917E+11
   9    0.500   38.800    4.565  3170.400  2.609E+11  2.609E+11
  10    0.559   43.365    4.565  3014.100  2.341E+11  2.341E+11
  11    0.618   47.929    4.565  2859.777  2.084E+11  2.084E+11
  12    0.676   52.494    4.565  2710.065  1.853E+11  1.853E+11
  13    0.735   57.059    4.565  2564.310  1.641E+11  1.641E+11
  14    0.794   61.624    4.565  2421.192  1.443E+11  1.443E+11
  15    0.853   66.188    4.565  2283.999  1.271E+11  1.271E+11
  16    0.912   70.753    4.565  2148.782  1.108E+11  1.108E+11
  17    0.971   75.318    4.565  2018.841  9.659E+10  9.659E+10


Interpolated blade 1 properties:

Node  BlFract   RNodes  DRNodes PitchAxis  StrcTwst  BMassDen    FlpStff    EdgStff
 (-)      (-)      (m)      (m)       (-)     (deg)    (kg/m)     (Nm^2)     (Nm^2)
   1    0.022    2.867    2.733     0.251    13.308   802.720  1.910E+10  1.955E+10
   2    0.067    5.600    2.733     0.278    13.308   634.770  1.123E+10  1.535E+10
   3    0.111    8.333    2.733     0.312    13.308   427.782  5.815E+09  8.460E+09
   4    0.167   11.750    4.100     0.354    13.302   445.160  4.654E+09  7.173E+09
   5    0.233   15.850    4.100     0.375    11.488   368.301  2.542E+09  5.034E+09
   6    0.300   19.950    4.100     0.375    10.162   353.510  2.022E+09  4.469E+09
   7    0.367   24.050    4.100     0.375     9.009   335.102  1.549E+09  3.953E+09
   8    0.433   28.150    4.100     0.375     7.795   306.314  1.051E+09  3.378E+09
   9    0.500   32.250    4.100     0.375     6.549   272.375  6.410E+08  2.685E+09
  10    0.567   36.350    4.100     0.375     5.359   245.485  3.782E+08  2.170E+09
  11    0.633   40.450    4.100     0.375     4.189   201.195  2.151E+08  1.486E+09
  12    0.700   44.550    4.100     0.375     3.144   167.837  1.180E+08  1.114E+09
  13    0.767   48.650    4.100     0.375     2.319   140.582  8.396E+07  7.559E+08
  14    0.833   52.750    4.100     0.375     1.526   107.471  5.498E+07  4.849E+08
  15    0.889   56.167    2.733     0.375     0.863    90.806  3.717E+07  3.758E+08
  16    0.933   58.900    2.733     0.375     0.370    70.842  2.545E+07  2.735E+08
  17    0.978   61.633    2.733     0.375     0.106    48.355  7.887E+06  8.728E+07


Interpolated blade 2 properties:

Node  BlFract   RNodes  DRNodes PitchAxis  StrcTwst  BMassDen    FlpStff    EdgStff
 (-)      (-)      (m)      (m)       (-)     (deg)    (kg/m)     (Nm^2)     (Nm^2)
   1    0.022    2.867    2.733     0.251    13.308   802.720  1.910E+10  1.955E+10
   2    0.067    5.600    2.733     0.278    13.308   634.770  1.123E+10  1.535E+10
   3    0.111    8.333    2.733     0.312    13.308   427.782  5.815E+09  8.460E+09
   4    0.167   11.750    4.100     0.354    13.302   445.160  4.654E+09  7.173E+09
   5    0.233   15.850    4.100     0.375    11.488   368.301  2.542E+09  5.034E+09
   6    0.300   19.950    4.100     0.375    10.162   353.510  2.022E+09  4.469E+09
   7    0.367   24.050    4.100     0.375     9.009   335.102  1.549E+09  3.953E+09
   8    0.433   28.150    4.100     0.375     7.795   306.314  1.051E+09  3.378E+09
   9    0.500   32.250    4.100     0.375     6.549   272.375  6.410E+08  2.685E+09
  10    0.567   36.350    4.100     0.375     5.359   245.485  3.782E+08  2.170E+09
  11    0.633   40.450    4.100     0.375     4.189   201.195  2.151E+08  1.486E+09
  12    0.700   44.550    4.100     0.375     3.144   167.837  1.180E+08  1.114E+09
  13    0.767   48.650    4.100     0.375     2.319   140.582  8.396E+07  7.559E+08
  14    0.833   52.750    4.100     0.375     1.526   107.471  5.498E+07  4.849E+08
  15    0.889   56.167    2.733     0.375     0.863    90.806  3.717E+07  3.758E+08
  16    0.933   58.900    2.733     0.375     0.370    70.842  2.545E+07  2.735E+08
  17    0.978   61.633    2.733     0.375     0.106    48.355  7.887E+06  8.728E+07


Interpolated blade 3 properties:

Node  BlFract   RNodes  DRNodes PitchAxis  StrcTwst  BMassDen    FlpStff    EdgStff
 (-)      (-)      (m)      (m)       (-)     (deg)    (kg/m)     (Nm^2)     (Nm^2)
   1    0.022    2.867    2.733     0.251    13.308   802.720  1.910E+10  1.955E+10
   2    0.067    5.600    2.733     0.278    13.308   634.770  1.123E+10  1.535E+10
   3    0.111    8.333    2.733     0.312    13.308   427.782  5.815E+09  8.460E+09
   4    0.167   11.750    4.100     0.354    13.302   445.160  4.654E+09  7.173E+09
   5    0.233   15.850    4.100     0.375    11.488   368.301  2.542E+09  5.034E+09
   6    0.300   19.950    4.100     0.375    10.162   353.510  2.022E+09  4.469E+09
   7    0.367   24.050    4.100     0.375     9.009   335.102  1.549E+09  3.953E+09
   8    0.433   28.150    4.100     0.375     7.795   306.314  1.051E+09  3.378E+09
   9    0.500   32.250    4.100     0.375     6.549   272.375  6.410E+08  2.685E+09
  10    0.567   36.350    4.100     0.375     5.359   245.485  3.782E+08  2.170E+09
  11    0.633   40.450    4.100     0.375     4.189   201.195  2.151E+08  1.486E+09
  12    0.700   44.550    4.100     0.375     3.144   167.837  1.180E+08  1.114E+09
  13    0.767   48.650    4.100     0.375     2.319   140.582  8.396E+07  7.559E+08
  14    0.833   52.750    4.100     0.375     1.526   107.471  5.498E+07  4.849E+08
  15    0.889   56.167    2.733     0.375     0.863    90.806  3.717E+07  3.758E+08
  16    0.933   58.900    2.733     0.375     0.370    70.842  2.545E+07  2.735E+08
  17    0.978   61.633    2.733     0.375     0.106    48.355  7.887E+06  8.728E+07


Requested Outputs:


  Col  Parameter  Units
  ---  ---------  -----
   0   Time       (s)       
   1   BldPitch1  (deg)     
   2   BldPitch2  (deg)     
   3   BldPitch3  (deg)     
   4   Azimuth    (deg)     
   5   RotSpeed   (rpm)     
   6   GenSpeed   (rpm)     
   7   NacYaw     (deg)     
   8   OoPDefl1   (m)       
   9   IPDefl1    (m)       
  10   TwstDefl1  (deg)     
  11   OoPDefl2   (m)       
  12   IPDefl2    (m)       
  13   TwstDefl2  (deg)     
  14   OoPDefl3   (m)       
  15   IPDefl3    (m)       
  16   TwstDefl3  (deg)     
  17   TwrClrnc1  (m)       
  18   TwrClrnc2  (m)       
  19   TwrClrnc3  (m)       
  20   NcIMUTAxs  (m/s^2)   
  21   NcIMUTAys  (m/s^2)   
  22   NcIMUTAzs  (m/s^2)   
  23   TTDspFA    (m)       
  24   TTDspSS    (m)       
  25   TTDspTwst  (deg)     
  26   PtfmSurge  (m)       
  27   PtfmSway   (m)       
  28   PtfmHeave  (m)       
  29   PtfmRoll   (deg)     
  30   PtfmPitch  (deg)     
  31   PtfmYaw    (deg)     
  32   PtfmTAxt   (m/s^2)   
  33   PtfmTAyt   (m/s^2)   
  34   PtfmTAzt   (m/s^2)   
  35   RootFxc1   (kN)      
  36   RootFyc1   (kN)      
  37   RootFzc1   (kN)      
  38   RootMxc1   (kN·m)    
  39   RootMyc1   (kN·m)    
  40   RootMzc1   (kN·m)    
  41   RootFxc2   (kN)      
  42   RootFyc2   (kN)      
  43   RootFzc2   (kN)      
  44   RootMxc2   (kN·m)    
  45   RootMyc2   (kN·m)    
  46   RootMzc2   (kN·m)    
  47   RootFxc3   (kN)      
  48   RootFyc3   (kN)      
  49   RootFzc3   (kN)      
  50   RootMxc3   (kN·m)    
  51   RootMyc3   (kN·m)    
  52   RootMzc3   (kN·m)    
  53   Spn1MLxb1  (kN·m)    
  54   Spn1MLyb1  (kN·m)    
  55   Spn1MLzb1  (kN·m)    
  56   Spn1MLxb2  (kN·m)    
  57   Spn1MLyb2  (kN·m)    
  58   Spn1MLzb2  (kN·m)    
  59   Spn1MLxb3  (kN·m)    
  60   Spn1MLyb3  (kN·m)    
  61   Spn1MLzb3  (kN·m)    
  62   RotThrust  (kN)      
  63   LSSGagFya  (kN)      
  64   LSSGagFza  (kN)      
  65   RotTorq    (kN·m)    
  66   LSSGagMya  (kN·m)    
  67   LSSGagMza  (kN·m)    
  68   YawBrFxp   (kN)      
  69   YawBrFyp   (kN)      
  70   YawBrFzp   (kN)      
  71   YawBrMxp   (kN·m)    
  72   YawBrMyp   (kN·m)    
  73   YawBrMzp   (kN·m)    
  74   TwrBsFxt   (kN)      
  75   TwrBsFyt   (kN)      
  76   TwrBsFzt   (kN)      
  77   TwrBsMxt   (kN·m)    
  78   TwrBsMyt   (kN·m)    
  79   TwrBsMzt   (kN·m)    
  80   TwHt1MLxt  (kN·m)    
  81   TwHt1MLyt  (kN·m)    
  82   TwHt1MLzt  (kN·m)    
