
This file was generated by AeroDyn14 (v14.04.00a-bjj, 14-Apr-2015) on 10-Jul-2015 at 10:43:06.

Inputs read in from the AeroDyn input file:
SWRT rotor aerodynamic parameters for FAST certification test #15.

           SI  SysUnits       - Units for input and output         
       STEADY  StallMod       - Dynamic stall model                 [NO Dynamic stall]
        NO_CM  UseCm          - Aerodynamic pitching moment model   [NO Pitching Moments calculated]
        EQUIL  InfModel       - Inflow model                        [Equilibrium]
        SWIRL  IndModel       - Induction factor model              [Normal and Radial flow induction factors calculated]
   5.0000E-03  AToler         - Convergence tolerance for induction factor
        PRAND  TLModel        - Tip-loss model                      [Prandtl model]
         NONE  HLModel        - Hub-loss model                      [NO hub-loss calculated]
   3.4619E+01  HH             - Wind reference (hub) height, m
   0.0000E+00  TwrShad        - Tower shadow centerline velocity deficit
   9.9999E+03  ShadHWid       - Tower shadow half width, m
   9.9999E+03  T_Shad_Refpt   - Tower shadow reference point, m
   1.0000E+00  AirDens        - Air density, kg/m^3
   1.5100E-05  KinVisc        - Kinematic air viscosity, m^2/sec
   1.0000E-03  DTAERO         - Time interval for aerodynamic calculations, sec
            4  NumFoil        - Number of airfoil files used. Files listed below:
"AD14forAD15Compare\../SWRT/AeroData/TailPlate.dat"
"AD14forAD15Compare\../SWRT/AeroData/SH3052Mod_AllRe_Hanley.dat"
"AD14forAD15Compare\../SWRT/AeroData/SH3052Mod_AllRe_Elem14_Hanley.dat"
"AD14forAD15Compare\../SWRT/AeroData/SH3052Mod_AllRe_Elem15_Hanley.dat"
           15  BldNodes       - Number of blade elements per blade

     Element     RELM       Twist       DR        Chord      NFoil     Print?    Tip-loss   Hub-loss 
       (-)        (m)       (deg)       (m)        (m)        (-)     (Yes/No)   constant   constant 
   ---------- ---------- ---------- ---------- ---------- ---------- ---------- ---------- ----------
            1    0.38960    0.00000    0.17310    0.21300          2         No    9.66530    0.42871
            2    0.56270    0.00000    0.17310    0.21300          2         No    6.23059    1.28564
            3    0.73580    0.00000    0.17310    0.21300          2         No    4.41193    2.14257
            4    0.90900    0.00000    0.17310    0.21300          2         No    3.28548    3.00000
            5    1.08210    0.00000    0.17310    0.21300          2         No    2.51996    3.85693
            6    1.25520    0.00000    0.17310    0.21300          2         No    1.96558    4.71386
            7    1.42840    0.00000    0.17310    0.21300          2         No    1.54537    5.57129
            8    1.60150    0.00000    0.17310    0.21300          2         No    1.21620    6.42822
            9    1.77460    0.00000    0.17310    0.21300          2         No    0.95126    7.28515
           10    1.94780    0.00000    0.17310    0.21300          2         No    0.73329    8.14257
           11    2.12090    0.00000    0.17310    0.21300          2         No    0.55102    8.99951
           12    2.29400    0.00000    0.17310    0.21300          2         No    0.39625    9.85644
           13    2.46720    0.00000    0.17310    0.21300          2         No    0.26313   10.71386
           14    2.64030    1.60000    0.17310    0.20100          3         No    0.14754   11.57079
           15    2.81340    3.20000    0.17310    0.18100          4         No    0.04617   12.42772


 Rotor radius     =   2.872 m
 Hub radius       =   0.300 m
 Number of blades =   3
