
This summary information was generated by ElastoDyn (v1.03.00a-bjj, 9-Jul-2015) on 02-Sep-2015 at 10:46:05.


Turbine features:

            Upwind, three-bladed rotor with rigid hub.
            The model has 16 of 24 DOFs active (enabled) at start-up.
 Disabled   Platform horizontal surge translation DOF 
 Disabled   Platform horizontal sway translation DOF 
 Disabled   Platform vertical heave translation DOF 
 Disabled   Platform roll tilt rotation DOF 
 Disabled   Platform pitch tilt rotation DOF 
 Disabled   Platform yaw rotation DOF 
 Enabled    1st tower fore-aft bending mode DOF 
 Enabled    1st tower side-to-side bending mode DOF 
 Enabled    2nd tower fore-aft bending mode DOF 
 Enabled    2nd tower side-to-side bending mode DOF 
 Enabled    Nacelle yaw DOF 
 Disabled   Rotor-furl DOF 
 Enabled    Variable speed generator DOF 
 Enabled    Drivetrain rotational-flexibility DOF 
 Disabled   Tail-furl DOF 
 Enabled    1st flapwise bending-mode DOF of blade 1 
 Enabled    1st edgewise bending-mode DOF of blade 1 
 Enabled    2nd flapwise bending-mode DOF of blade 1 
 Enabled    1st flapwise bending-mode DOF of blade 2 
 Enabled    1st edgewise bending-mode DOF of blade 2 
 Enabled    2nd flapwise bending-mode DOF of blade 2 
 Enabled    1st flapwise bending-mode DOF of blade 3 
 Enabled    1st edgewise bending-mode DOF of blade 3 
 Enabled    2nd flapwise bending-mode DOF of blade 3 


Time steps:

    Structural            (s)        0.01250000


Some calculated parameters:

    Hub-Height            (m)            90.000
    Flexible Tower Length (m)            87.600
    Flexible Blade Length (m)            61.500


Rotor mass properties:

    Rotor Mass            (kg)       110610.359
    Rotor Inertia         (kg-m^2) 39202236.000
                                        Blade 1      Blade 2      Blade 3
                                        -------      -------      -------
    Mass                  (kg)        17943.455    17943.455    17943.455
    Second Mass Moment    (kg-m^2) 11911047.000 11911047.000 11911047.000
    First Mass Moment     (kg-m)     367395.375   367395.375   367395.375
    Center of Mass        (m)            20.475       20.475       20.475


Additional mass properties:

    Tower-top Mass        (kg)       350610.375
    Tower Mass            (kg)       347460.219
    Platform Mass         (kg)            0.000
    Mass Incl. Platform   (kg)       698070.625


Interpolated tower properties:

Node  TwFract   HNodes  DHNodes  TMassDen    FAStiff    SSStiff
 (-)      (-)      (m)      (m)    (kg/m)     (Nm^2)     (Nm^2)
   1    0.025    2.190    4.380  5501.260  5.945E+11  5.945E+11
   2    0.075    6.570    4.380  5322.040  5.547E+11  5.547E+11
   3    0.125   10.950    4.380  5145.763  5.169E+11  5.169E+11
   4    0.175   15.330    4.380  4972.427  4.812E+11  4.812E+11
   5    0.225   19.710    4.380  4802.038  4.472E+11  4.472E+11
   6    0.275   24.090    4.380  4634.593  4.152E+11  4.152E+11
   7    0.325   28.470    4.380  4470.090  3.848E+11  3.848E+11
   8    0.375   32.850    4.380  4308.530  3.562E+11  3.562E+11
   9    0.425   37.230    4.380  4149.915  3.292E+11  3.292E+11
  10    0.475   41.610    4.380  3994.245  3.037E+11  3.037E+11
  11    0.525   45.990    4.380  3841.515  2.798E+11  2.798E+11
  12    0.575   50.370    4.380  3691.725  2.573E+11  2.573E+11
  13    0.625   54.750    4.380  3544.880  2.361E+11  2.361E+11
  14    0.675   59.130    4.380  3400.980  2.163E+11  2.163E+11
  15    0.725   63.510    4.380  3260.025  1.978E+11  1.978E+11
  16    0.775   67.890    4.380  3122.015  1.805E+11  1.805E+11
  17    0.825   72.270    4.380  2986.945  1.643E+11  1.643E+11
  18    0.875   76.650    4.380  2854.815  1.493E+11  1.493E+11
  19    0.925   81.030    4.380  2725.630  1.353E+11  1.353E+11
  20    0.975   85.410    4.380  2599.390  1.223E+11  1.223E+11


Interpolated blade 1 properties:

Node  BlFract   RNodes  DRNodes PitchAxis  StrcTwst  BMassDen    FlpStff    EdgStff
 (-)      (-)      (m)      (m)       (-)     (deg)    (kg/m)     (Nm^2)     (Nm^2)
   1    0.022    2.867    2.733     0.251    13.308   811.922  1.910E+10  1.955E+10
   2    0.067    5.600    2.733     0.278    13.308   642.047  1.123E+10  1.535E+10
   3    0.111    8.333    2.733     0.312    13.308   432.686  5.815E+09  8.460E+09
   4    0.167   11.750    4.100     0.354    13.302   450.263  4.654E+09  7.173E+09
   5    0.233   15.850    4.100     0.375    11.488   372.523  2.542E+09  5.034E+09
   6    0.300   19.950    4.100     0.375    10.162   357.563  2.022E+09  4.469E+09
   7    0.367   24.050    4.100     0.375     9.009   338.944  1.549E+09  3.953E+09
   8    0.433   28.150    4.100     0.375     7.795   309.825  1.051E+09  3.378E+09
   9    0.500   32.250    4.100     0.375     6.549   275.498  6.410E+08  2.685E+09
  10    0.567   36.350    4.100     0.375     5.359   248.300  3.782E+08  2.170E+09
  11    0.633   40.450    4.100     0.375     4.189   203.501  2.151E+08  1.486E+09
  12    0.700   44.550    4.100     0.375     3.144   169.761  1.180E+08  1.114E+09
  13    0.767   48.650    4.100     0.375     2.319   142.194  8.396E+07  7.559E+08
  14    0.833   52.750    4.100     0.375     1.526   108.703  5.498E+07  4.849E+08
  15    0.889   56.167    2.733     0.375     0.863    91.847  3.717E+07  3.758E+08
  16    0.933   58.900    2.733     0.375     0.370    71.654  2.545E+07  2.735E+08
  17    0.978   61.633    2.733     0.375     0.106    48.910  7.887E+06  8.728E+07


Interpolated blade 2 properties:

Node  BlFract   RNodes  DRNodes PitchAxis  StrcTwst  BMassDen    FlpStff    EdgStff
 (-)      (-)      (m)      (m)       (-)     (deg)    (kg/m)     (Nm^2)     (Nm^2)
   1    0.022    2.867    2.733     0.251    13.308   811.922  1.910E+10  1.955E+10
   2    0.067    5.600    2.733     0.278    13.308   642.047  1.123E+10  1.535E+10
   3    0.111    8.333    2.733     0.312    13.308   432.686  5.815E+09  8.460E+09
   4    0.167   11.750    4.100     0.354    13.302   450.263  4.654E+09  7.173E+09
   5    0.233   15.850    4.100     0.375    11.488   372.523  2.542E+09  5.034E+09
   6    0.300   19.950    4.100     0.375    10.162   357.563  2.022E+09  4.469E+09
   7    0.367   24.050    4.100     0.375     9.009   338.944  1.549E+09  3.953E+09
   8    0.433   28.150    4.100     0.375     7.795   309.825  1.051E+09  3.378E+09
   9    0.500   32.250    4.100     0.375     6.549   275.498  6.410E+08  2.685E+09
  10    0.567   36.350    4.100     0.375     5.359   248.300  3.782E+08  2.170E+09
  11    0.633   40.450    4.100     0.375     4.189   203.501  2.151E+08  1.486E+09
  12    0.700   44.550    4.100     0.375     3.144   169.761  1.180E+08  1.114E+09
  13    0.767   48.650    4.100     0.375     2.319   142.194  8.396E+07  7.559E+08
  14    0.833   52.750    4.100     0.375     1.526   108.703  5.498E+07  4.849E+08
  15    0.889   56.167    2.733     0.375     0.863    91.847  3.717E+07  3.758E+08
  16    0.933   58.900    2.733     0.375     0.370    71.654  2.545E+07  2.735E+08
  17    0.978   61.633    2.733     0.375     0.106    48.910  7.887E+06  8.728E+07


Interpolated blade 3 properties:

Node  BlFract   RNodes  DRNodes PitchAxis  StrcTwst  BMassDen    FlpStff    EdgStff
 (-)      (-)      (m)      (m)       (-)     (deg)    (kg/m)     (Nm^2)     (Nm^2)
   1    0.022    2.867    2.733     0.251    13.308   811.922  1.910E+10  1.955E+10
   2    0.067    5.600    2.733     0.278    13.308   642.047  1.123E+10  1.535E+10
   3    0.111    8.333    2.733     0.312    13.308   432.686  5.815E+09  8.460E+09
   4    0.167   11.750    4.100     0.354    13.302   450.263  4.654E+09  7.173E+09
   5    0.233   15.850    4.100     0.375    11.488   372.523  2.542E+09  5.034E+09
   6    0.300   19.950    4.100     0.375    10.162   357.563  2.022E+09  4.469E+09
   7    0.367   24.050    4.100     0.375     9.009   338.944  1.549E+09  3.953E+09
   8    0.433   28.150    4.100     0.375     7.795   309.825  1.051E+09  3.378E+09
   9    0.500   32.250    4.100     0.375     6.549   275.498  6.410E+08  2.685E+09
  10    0.567   36.350    4.100     0.375     5.359   248.300  3.782E+08  2.170E+09
  11    0.633   40.450    4.100     0.375     4.189   203.501  2.151E+08  1.486E+09
  12    0.700   44.550    4.100     0.375     3.144   169.761  1.180E+08  1.114E+09
  13    0.767   48.650    4.100     0.375     2.319   142.194  8.396E+07  7.559E+08
  14    0.833   52.750    4.100     0.375     1.526   108.703  5.498E+07  4.849E+08
  15    0.889   56.167    2.733     0.375     0.863    91.847  3.717E+07  3.758E+08
  16    0.933   58.900    2.733     0.375     0.370    71.654  2.545E+07  2.735E+08
  17    0.978   61.633    2.733     0.375     0.106    48.910  7.887E+06  8.728E+07


Requested Outputs:


  Col  Parameter  Units
  ---  ---------  -----
   0   Time       (s)       
   1   BldPitch1  (deg)     
   2   Azimuth    (deg)     
   3   RotSpeed   (rpm)     
   4   GenSpeed   (rpm)     
   5   TTDspFA    (m)       
   6   TTDspSS    (m)       
   7   TTDspTwst  (deg)     
   8   RotTorq    (kN·m)    
   9   LSSGagMya  (kN·m)    
  10   LSSGagMza  (kN·m)    
  11   YawBrFxp   (kN)      
  12   YawBrFyp   (kN)      
  13   YawBrFzp   (kN)      
  14   YawBrMxp   (kN·m)    
  15   YawBrMyp   (kN·m)    
  16   YawBrMzp   (kN·m)    
  17   TwrBsFxt   (kN)      
  18   TwrBsFyt   (kN)      
  19   TwrBsFzt   (kN)      
  20   TwrBsMxt   (kN·m)    
  21   TwrBsMyt   (kN·m)    
  22   TwrBsMzt   (kN·m)    
  23   RootFxb1   (kN)      
  24   RootFxb2   (kN)      
  25   RootFxb3   (kN)      
  26   RootFyb1   (kN)      
  27   RootFyb2   (kN)      
  28   RootFyb3   (kN)      
  29   RootFzb1   (kN)      
  30   RootFzb2   (kN)      
  31   RootFzb3   (kN)      
  32   RootMxb1   (kN·m)    
  33   RootMxb2   (kN·m)    
  34   RootMxb3   (kN·m)    
  35   RootMyb1   (kN·m)    
  36   RootMyb2   (kN·m)    
  37   RootMyb3   (kN·m)    
  38   RootMzb1   (kN·m)    
  39   RootMzb2   (kN·m)    
  40   RootMzb3   (kN·m)    
  41   TipDxb1    (m)       
  42   TipDxb2    (m)       
  43   TipDxb3    (m)       
  44   TipDyb1    (m)       
  45   TipDyb2    (m)       
  46   TipDyb3    (m)       
  47   TipDzb1    (m)       
  48   TipDzb2    (m)       
  49   TipDzb3    (m)       
  50   TipALxb1   (m/s^2)   
  51   TipALxb2   (m/s^2)   
  52   TipALxb3   (m/s^2)   
  53   TipALyb1   (m/s^2)   
  54   TipALyb2   (m/s^2)   
  55   TipALyb3   (m/s^2)   
  56   TipALzb1   (m/s^2)   
  57   TipALzb2   (m/s^2)   
  58   TipALzb3   (m/s^2)   
