This file was generated by AeroDyn14 (v14.04.00a-bjj, 14-Apr-2015) on 25-Aug-2015 at 13:27:37.
Time	VX21	VY21	VZ21	Alpha10	DynPres10	CLift10	CDrag10	CNorm10	CTang10	CMomt10	Pitch10	AxInd10	TanInd10	ForcN10	ForcT10	Pmomt10	ReNum10	Alpha16	DynPres16	CLift16	CDrag16	CNorm16	CTang16	CMomt16	Pitch16	AxInd16	TanInd16	ForcN16	ForcT16	Pmomt16	ReNum16
(sec)	 (m/sec)	 (m/sec)	 (m/sec)	(deg)	(Pa)	(-)	(-)	(-)	(-)	(-)	(deg)	(-)	(-)	(N)	(N)	(N-m)	(x10^6)	(deg)	(Pa)	(-)	(-)	(-)	(-)	(-)	(deg)	(-)	(-)	(N)	(N)	(N-m)	(x10^6)
     0.000	 5.00000E+00	 0.00000E+00	 0.00000E+00	 6.20719E+00	 2.85789E+02	 8.92310E-01	 1.54482E-02	 8.88749E-01	 8.11227E-02	-4.52399E-02	 7.29300E+00	 0.00000E+00	 0.00000E+00	 3.41578E+01	 7.57782E+00	-1.03580E+00	 8.54437E-01	 4.93871E+00	 5.87246E+02	 7.58894E-01	 1.45751E-02	 7.57331E-01	 5.08123E-02	-5.00530E-02	 4.43400E+00	 0.00000E+00	 0.00000E+00	 4.05586E+01	 5.89694E+00	-1.23512E+00	 9.58453E-01
     0.004	 5.00000E+00	 0.00000E+00	 0.00000E+00	 3.30811E+00	 2.84962E+02	 5.64775E-01	 1.44198E-02	 5.64666E-01	 1.81948E-02	-4.60153E-02	 7.29300E+00	 2.13086E-01	 9.39935E-03	 2.18048E+01	 3.50762E+00	-1.05051E+00	 8.53200E-01	 2.72537E+00	 5.85846E+02	 4.97186E-01	 1.39005E-02	 4.97284E-01	 9.75580E-03	-4.46080E-02	 4.43400E+00	 2.35637E-01	 4.42904E-03	 2.66667E+01	 2.59491E+00	-1.09814E+00	 9.57310E-01
     0.008	 5.00000E+00	 0.00000E+00	 0.00000E+00	 3.20479E+00	 2.85016E+02	 5.52475E-01	 1.44100E-02	 5.52416E-01	 1.64986E-02	-4.57595E-02	 7.29300E+00	 2.20595E-01	 9.83429E-03	 2.13423E+01	 3.38170E+00	-1.04486E+00	 8.53281E-01	 2.66426E+00	 5.85875E+02	 4.90201E-01	 1.38190E-02	 4.90313E-01	 8.98209E-03	-4.44625E-02	 4.43400E+00	 2.42110E-01	 4.58771E-03	 2.62969E+01	 2.52445E+00	-1.09461E+00	 9.57333E-01
     0.012	 5.00000E+00	 0.00000E+00	 0.00000E+00	 3.29504E+00	 2.84970E+02	 5.63219E-01	 1.44186E-02	 5.63117E-01	 1.79778E-02	-4.59830E-02	 7.29300E+00	 2.14033E-01	 9.45723E-03	 2.17464E+01	 3.49161E+00	-1.04980E+00	 8.53212E-01	 2.71563E+00	 5.85851E+02	 4.96072E-01	 1.38875E-02	 4.96172E-01	 9.63141E-03	-4.45848E-02	 4.43400E+00	 2.36670E-01	 4.45443E-03	 2.66077E+01	 2.58362E+00	-1.09758E+00	 9.57314E-01
     0.016	 5.00000E+00	 0.00000E+00	 0.00000E+00	 3.21630E+00	 2.85010E+02	 5.53845E-01	 1.44111E-02	 5.53781E-01	 1.66854E-02	-4.57880E-02	 7.29300E+00	 2.19758E-01	 9.78607E-03	 2.13938E+01	 3.39565E+00	-1.04549E+00	 8.53272E-01	 2.67253E+00	 5.85871E+02	 4.91147E-01	 1.38300E-02	 4.91257E-01	 9.08599E-03	-4.44822E-02	 4.43400E+00	 2.41234E-01	 4.56619E-03	 2.63469E+01	 2.53394E+00	-1.09509E+00	 9.57330E-01
     0.020	 5.00000E+00	 0.00000E+00	 0.00000E+00	 3.28509E+00	 2.84975E+02	 5.62034E-01	 1.44176E-02	 5.61937E-01	 1.78129E-02	-4.59583E-02	 7.29300E+00	 2.14757E-01	 9.49872E-03	 2.17019E+01	 3.47943E+00	-1.04925E+00	 8.53220E-01	 2.70874E+00	 5.85854E+02	 4.95285E-01	 1.38783E-02	 4.95387E-01	 9.54377E-03	-4.45684E-02	 4.43400E+00	 2.37399E-01	 4.47226E-03	 2.65661E+01	 2.57566E+00	-1.09718E+00	 9.57316E-01
     0.024	 5.00000E+00	 0.00000E+00	 0.00000E+00	 3.22507E+00	 2.85005E+02	 5.54889E-01	 1.44119E-02	 5.54821E-01	 1.68280E-02	-4.58097E-02	 7.29300E+00	 2.19121E-01	 9.74935E-03	 2.14331E+01	 3.40628E+00	-1.04597E+00	 8.53265E-01	 2.67836E+00	 5.85868E+02	 4.91813E-01	 1.38378E-02	 4.91922E-01	 9.15931E-03	-4.44961E-02	 4.43400E+00	 2.40617E-01	 4.55105E-03	 2.63822E+01	 2.54064E+00	-1.09542E+00	 9.57328E-01
     0.028	 5.00000E+00	 0.00000E+00	 0.00000E+00	 3.27749E+00	 2.84979E+02	 5.61130E-01	 1.44169E-02	 5.61036E-01	 1.76875E-02	-4.59395E-02	 7.29300E+00	 2.15309E-01	 9.53037E-03	 2.16679E+01	 3.47014E+00	-1.04884E+00	 8.53225E-01	 2.70388E+00	 5.85856E+02	 4.94729E-01	 1.38718E-02	 4.94833E-01	 9.48202E-03	-4.45569E-02	 4.43400E+00	 2.37914E-01	 4.48483E-03	 2.65367E+01	 2.57004E+00	-1.09690E+00	 9.57318E-01
     0.032	 5.00000E+00	 0.00000E+00	 0.00000E+00	 3.23174E+00	 2.85002E+02	 5.55683E-01	 1.44125E-02	 5.55612E-01	 1.69368E-02	-4.58262E-02	 7.29300E+00	 2.18636E-01	 9.72140E-03	 2.14630E+01	 3.41439E+00	-1.04633E+00	 8.53260E-01	 2.68246E+00	 5.85866E+02	 4.92281E-01	 1.38433E-02	 4.92390E-01	 9.21101E-03	-4.45059E-02	 4.43400E+00	 2.40182E-01	 4.54044E-03	 2.64070E+01	 2.54536E+00	-1.09566E+00	 9.57326E-01
     0.036	 5.00000E+00	 0.00000E+00	 0.00000E+00	 3.27170E+00	 2.84982E+02	 5.60440E-01	 1.44164E-02	 5.60350E-01	 1.75920E-02	-4.59252E-02	 7.29300E+00	 2.15731E-01	 9.55451E-03	 2.16419E+01	 3.46306E+00	-1.04852E+00	 8.53230E-01	 2.70045E+00	 5.85858E+02	 4.94337E-01	 1.38673E-02	 4.94442E-01	 9.43851E-03	-4.45487E-02	 4.43400E+00	 2.38277E-01	 4.49371E-03	 2.65159E+01	 2.56608E+00	-1.09670E+00	 9.57319E-01
     0.040	 5.00000E+00	 0.00000E+00	 0.00000E+00	 3.23682E+00	 2.84999E+02	 5.56289E-01	 1.44130E-02	 5.56215E-01	 1.70198E-02	-4.58388E-02	 7.29300E+00	 2.18266E-01	 9.70012E-03	 2.14858E+01	 3.42057E+00	-1.04661E+00	 8.53256E-01	 2.68535E+00	 5.85865E+02	 4.92612E-01	 1.38471E-02	 4.92720E-01	 9.24748E-03	-4.45127E-02	 4.43400E+00	 2.39876E-01	 4.53293E-03	 2.64245E+01	 2.54868E+00	-1.09583E+00	 9.57325E-01
     0.044	 5.00000E+00	 0.00000E+00	 0.00000E+00	 3.26728E+00	 2.84984E+02	 5.59914E-01	 1.44159E-02	 5.59825E-01	 1.75191E-02	-4.59142E-02	 7.29300E+00	 2.16052E-01	 9.57298E-03	 2.16221E+01	 3.45766E+00	-1.04828E+00	 8.53233E-01	 2.69803E+00	 5.85859E+02	 4.94061E-01	 1.38640E-02	 4.94166E-01	 9.40786E-03	-4.45429E-02	 4.43400E+00	 2.38533E-01	 4.49997E-03	 2.65013E+01	 2.56329E+00	-1.09656E+00	 9.57320E-01
     0.048	 5.00000E+00	 0.00000E+00	 0.00000E+00	 3.24070E+00	 2.84997E+02	 5.56750E-01	 1.44134E-02	 5.56674E-01	 1.70831E-02	-4.58484E-02	 7.29300E+00	 2.17984E-01	 9.68397E-03	 2.15031E+01	 3.42528E+00	-1.04682E+00	 8.53253E-01	 2.68739E+00	 5.85864E+02	 4.92845E-01	 1.38499E-02	 4.92952E-01	 9.27318E-03	-4.45176E-02	 4.43400E+00	 2.39660E-01	 4.52763E-03	 2.64368E+01	 2.55102E+00	-1.09594E+00	 9.57324E-01
     0.052	 5.00000E+00	 0.00000E+00	 0.00000E+00	 3.26391E+00	 2.84986E+02	 5.59513E-01	 1.44156E-02	 5.59426E-01	 1.74637E-02	-4.59059E-02	 7.29300E+00	 2.16297E-01	 9.58699E-03	 2.16070E+01	 3.45355E+00	-1.04809E+00	 8.53236E-01	 2.69633E+00	 5.85860E+02	 4.93866E-01	 1.38618E-02	 4.93971E-01	 9.38624E-03	-4.45389E-02	 4.43400E+00	 2.38714E-01	 4.50444E-03	 2.64909E+01	 2.56133E+00	-1.09646E+00	 9.57321E-01
     0.056	 5.00000E+00	 0.00000E+00	 0.00000E+00	 3.24365E+00	 2.84996E+02	 5.57101E-01	 1.44137E-02	 5.57024E-01	 1.71313E-02	-4.58557E-02	 7.29300E+00	 2.17770E-01	 9.67163E-03	 2.15163E+01	 3.42886E+00	-1.04699E+00	 8.53251E-01	 2.68882E+00	 5.85863E+02	 4.93008E-01	 1.38518E-02	 4.93115E-01	 9.29129E-03	-4.45210E-02	 4.43400E+00	 2.39508E-01	 4.52393E-03	 2.64455E+01	 2.55268E+00	-1.09603E+00	 9.57324E-01
     0.060	 5.00000E+00	 0.00000E+00	 0.00000E+00	 3.26134E+00	 2.84987E+02	 5.59207E-01	 1.44154E-02	 5.59121E-01	 1.74215E-02	-4.58995E-02	 7.29300E+00	 2.16484E-01	 9.59778E-03	 2.15955E+01	 3.45042E+00	-1.04795E+00	 8.53237E-01	 2.69513E+00	 5.85860E+02	 4.93729E-01	 1.38602E-02	 4.93834E-01	 9.37101E-03	-4.45360E-02	 4.43400E+00	 2.38841E-01	 4.50754E-03	 2.64837E+01	 2.55994E+00	-1.09639E+00	 9.57321E-01
     0.064	 5.00000E+00	 0.00000E+00	 0.00000E+00	 3.24590E+00	 2.84995E+02	 5.57369E-01	 1.44139E-02	 5.57291E-01	 1.71682E-02	-4.58613E-02	 7.29300E+00	 2.17606E-01	 9.66221E-03	 2.15264E+01	 3.43161E+00	-1.04711E+00	 8.53249E-01	 2.68983E+00	 5.85863E+02	 4.93124E-01	 1.38531E-02	 4.93231E-01	 9.30407E-03	-4.45234E-02	 4.43400E+00	 2.39401E-01	 4.52131E-03	 2.64516E+01	 2.55384E+00	-1.09609E+00	 9.57323E-01
     0.068	 5.00000E+00	 0.00000E+00	 0.00000E+00	 3.25938E+00	 2.84988E+02	 5.58973E-01	 1.44152E-02	 5.58889E-01	 1.73892E-02	-4.58946E-02	 7.29300E+00	 2.16626E-01	 9.60588E-03	 2.15868E+01	 3.44803E+00	-1.04785E+00	 8.53239E-01	 2.69428E+00	 5.85861E+02	 4.93632E-01	 1.38590E-02	 4.93738E-01	 9.36030E-03	-4.45340E-02	 4.43400E+00	 2.38931E-01	 4.50975E-03	 2.64785E+01	 2.55896E+00	-1.09634E+00	 9.57322E-01
     0.072	 5.00000E+00	 0.00000E+00	 0.00000E+00	 3.24761E+00	 2.84994E+02	 5.57572E-01	 1.44141E-02	 5.57494E-01	 1.71962E-02	-4.58655E-02	 7.29300E+00	 2.17482E-01	 9.65506E-03	 2.15341E+01	 3.43369E+00	-1.04720E+00	 8.53248E-01	 2.69055E+00	 5.85862E+02	 4.93206E-01	 1.38541E-02	 4.93312E-01	 9.31310E-03	-4.45251E-02	 4.43400E+00	 2.39326E-01	 4.51940E-03	 2.64560E+01	 2.55466E+00	-1.09613E+00	 9.57323E-01
     0.076	 5.00000E+00	 0.00000E+00	 0.00000E+00	 3.25789E+00	 2.84989E+02	 5.58796E-01	 1.44150E-02	 5.58712E-01	 1.73647E-02	-4.58910E-02	 7.29300E+00	 2.16735E-01	 9.61214E-03	 2.15801E+01	 3.44621E+00	-1.04776E+00	 8.53240E-01	 2.69368E+00	 5.85861E+02	 4.93563E-01	 1.38582E-02	 4.93669E-01	 9.35271E-03	-4.45326E-02	 4.43400E+00	 2.38994E-01	 4.51130E-03	 2.64749E+01	 2.55827E+00	-1.09631E+00	 9.57322E-01
     0.080	 5.00000E+00	 0.00000E+00	 0.00000E+00	 3.24891E+00	 2.84993E+02	 5.57728E-01	 1.44142E-02	 5.57648E-01	 1.72176E-02	-4.58687E-02	 7.29300E+00	 2.17387E-01	 9.64963E-03	 2.15399E+01	 3.43527E+00	-1.04727E+00	 8.53247E-01	 2.69105E+00	 5.85862E+02	 4.93263E-01	 1.38547E-02	 4.93369E-01	 9.31945E-03	-4.45263E-02	 4.43400E+00	 2.39273E-01	 4.51815E-03	 2.64590E+01	 2.55524E+00	-1.09616E+00	 9.57323E-01
     0.084	 5.00000E+00	 0.00000E+00	 0.00000E+00	 3.25675E+00	 2.84989E+02	 5.58660E-01	 1.44149E-02	 5.58577E-01	 1.73460E-02	-4.58881E-02	 7.29300E+00	 2.16818E-01	 9.61685E-03	 2.15750E+01	 3.44482E+00	-1.04770E+00	 8.53241E-01	 2.69326E+00	 5.85861E+02	 4.93515E-01	 1.38577E-02	 4.93621E-01	 9.34739E-03	-4.45316E-02	 4.43400E+00	 2.39039E-01	 4.51237E-03	 2.64724E+01	 2.55779E+00	-1.09628E+00	 9.57322E-01
     0.088	 5.00000E+00	 0.00000E+00	 0.00000E+00	 3.24991E+00	 2.84993E+02	 5.57846E-01	 1.44143E-02	 5.57766E-01	 1.72338E-02	-4.58712E-02	 7.29300E+00	 2.17315E-01	 9.64546E-03	 2.15444E+01	 3.43649E+00	-1.04733E+00	 8.53246E-01	 2.69140E+00	 5.85862E+02	 4.93303E-01	 1.38552E-02	 4.93410E-01	 9.32393E-03	-4.45272E-02	 4.43400E+00	 2.39235E-01	 4.51720E-03	 2.64611E+01	 2.55565E+00	-1.09618E+00	 9.57323E-01
     0.092	 5.00000E+00	 0.00000E+00	 0.00000E+00	 3.25588E+00	 2.84990E+02	 5.58557E-01	 1.44148E-02	 5.58474E-01	 1.73318E-02	-4.58860E-02	 7.29300E+00	 2.16881E-01	 9.62055E-03	 2.15711E+01	 3.44376E+00	-1.04765E+00	 8.53242E-01	 2.69296E+00	 5.85861E+02	 4.93481E-01	 1.38573E-02	 4.93587E-01	 9.34362E-03	-4.45309E-02	 4.43400E+00	 2.39070E-01	 4.51314E-03	 2.64706E+01	 2.55744E+00	-1.09627E+00	 9.57322E-01
     0.096	 5.00000E+00	 0.00000E+00	 0.00000E+00	 3.25066E+00	 2.84992E+02	 5.57936E-01	 1.44143E-02	 5.57856E-01	 1.72463E-02	-4.58731E-02	 7.29300E+00	 2.17260E-01	 9.64230E-03	 2.15477E+01	 3.43741E+00	-1.04737E+00	 8.53246E-01	 2.69165E+00	 5.85862E+02	 4.93332E-01	 1.38555E-02	 4.93438E-01	 9.32707E-03	-4.45277E-02	 4.43400E+00	 2.39209E-01	 4.51654E-03	 2.64627E+01	 2.55594E+00	-1.09619E+00	 9.57323E-01
     0.100	 5.00000E+00	 0.00000E+00	 0.00000E+00	 3.25522E+00	 2.84990E+02	 5.58478E-01	 1.44148E-02	 5.58396E-01	 1.73209E-02	-4.58843E-02	 7.29300E+00	 2.16929E-01	 9.62329E-03	 2.15681E+01	 3.44296E+00	-1.04762E+00	 8.53242E-01	 2.69275E+00	 5.85862E+02	 4.93457E-01	 1.38570E-02	 4.93563E-01	 9.34096E-03	-4.45304E-02	 4.43400E+00	 2.39092E-01	 4.51368E-03	 2.64693E+01	 2.55720E+00	-1.09625E+00	 9.57322E-01
     0.104	 5.00000E+00	 0.00000E+00	 0.00000E+00	 3.25124E+00	 2.84992E+02	 5.58005E-01	 1.44144E-02	 5.57924E-01	 1.72557E-02	-4.58745E-02	 7.29300E+00	 2.17218E-01	 9.63986E-03	 2.15503E+01	 3.43811E+00	-1.04740E+00	 8.53245E-01	 2.69183E+00	 5.85862E+02	 4.93352E-01	 1.38558E-02	 4.93458E-01	 9.32930E-03	-4.45282E-02	 4.43400E+00	 2.39190E-01	 4.51607E-03	 2.64637E+01	 2.55614E+00	-1.09620E+00	 9.57323E-01
     0.108	 5.00000E+00	 0.00000E+00	 0.00000E+00	 3.25471E+00	 2.84990E+02	 5.58418E-01	 1.44147E-02	 5.58336E-01	 1.73127E-02	-4.58831E-02	 7.29300E+00	 2.16965E-01	 9.62538E-03	 2.15659E+01	 3.44234E+00	-1.04759E+00	 8.53243E-01	 2.69260E+00	 5.85861E+02	 4.93441E-01	 1.38568E-02	 4.93547E-01	 9.33910E-03	-4.45300E-02	 4.43400E+00	 2.39108E-01	 4.51410E-03	 2.64684E+01	 2.55703E+00	-1.09625E+00	 9.57322E-01
     0.112	 5.00000E+00	 0.00000E+00	 0.00000E+00	 3.25168E+00	 2.84992E+02	 5.58058E-01	 1.44144E-02	 5.57977E-01	 1.72630E-02	-4.58756E-02	 7.29300E+00	 2.17186E-01	 9.63807E-03	 2.15523E+01	 3.43865E+00	-1.04743E+00	 8.53245E-01	 2.69195E+00	 5.85862E+02	 4.93366E-01	 1.38559E-02	 4.93472E-01	 9.33087E-03	-4.45285E-02	 4.43400E+00	 2.39177E-01	 4.51577E-03	 2.64645E+01	 2.55628E+00	-1.09621E+00	 9.57323E-01
     0.116	 5.00000E+00	 0.00000E+00	 0.00000E+00	 3.25433E+00	 2.84991E+02	 5.58372E-01	 1.44147E-02	 5.58290E-01	 1.73064E-02	-4.58821E-02	 7.29300E+00	 2.16993E-01	 9.62698E-03	 2.15642E+01	 3.44187E+00	-1.04757E+00	 8.53243E-01	 2.69250E+00	 5.85862E+02	 4.93429E-01	 1.38567E-02	 4.93535E-01	 9.33778E-03	-4.45298E-02	 4.43400E+00	 2.39119E-01	 4.51434E-03	 2.64678E+01	 2.55691E+00	-1.09624E+00	 9.57322E-01
     0.120	 5.00000E+00	 0.00000E+00	 0.00000E+00	 3.25202E+00	 2.84992E+02	 5.58098E-01	 1.44145E-02	 5.58017E-01	 1.72685E-02	-4.58764E-02	 7.29300E+00	 2.17161E-01	 9.63664E-03	 2.15538E+01	 3.43906E+00	-1.04744E+00	 8.53244E-01	 2.69204E+00	 5.85862E+02	 4.93376E-01	 1.38561E-02	 4.93483E-01	 9.33198E-03	-4.45287E-02	 4.43400E+00	 2.39168E-01	 4.51553E-03	 2.64650E+01	 2.55638E+00	-1.09621E+00	 9.57322E-01
     0.124	 5.00000E+00	 0.00000E+00	 0.00000E+00	 3.25403E+00	 2.84991E+02	 5.58337E-01	 1.44147E-02	 5.58255E-01	 1.73015E-02	-4.58814E-02	 7.29300E+00	 2.17015E-01	 9.62824E-03	 2.15628E+01	 3.44151E+00	-1.04755E+00	 8.53243E-01	 2.69243E+00	 5.85862E+02	 4.93420E-01	 1.38566E-02	 4.93526E-01	 9.33684E-03	-4.45296E-02	 4.43400E+00	 2.39127E-01	 4.51458E-03	 2.64673E+01	 2.55683E+00	-1.09624E+00	 9.57322E-01
     0.128	 5.00000E+00	 0.00000E+00	 0.00000E+00	 3.25228E+00	 2.84992E+02	 5.58128E-01	 1.44145E-02	 5.58047E-01	 1.72727E-02	-4.58771E-02	 7.29300E+00	 2.17143E-01	 9.63557E-03	 2.15550E+01	 3.43937E+00	-1.04746E+00	 8.53244E-01	 2.69210E+00	 5.85862E+02	 4.93383E-01	 1.38561E-02	 4.93490E-01	 9.33277E-03	-4.45288E-02	 4.43400E+00	 2.39161E-01	 4.51535E-03	 2.64654E+01	 2.55645E+00	-1.09622E+00	 9.57323E-01
     0.132	 5.00000E+00	 0.00000E+00	 0.00000E+00	 3.25381E+00	 2.84991E+02	 5.58311E-01	 1.44146E-02	 5.58229E-01	 1.72979E-02	-4.58809E-02	 7.29300E+00	 2.17031E-01	 9.62913E-03	 2.15618E+01	 3.44124E+00	-1.04754E+00	 8.53243E-01	 2.69238E+00	 5.85861E+02	 4.93414E-01	 1.38565E-02	 4.93521E-01	 9.33621E-03	-4.45295E-02	 4.43400E+00	 2.39132E-01	 4.51469E-03	 2.64670E+01	 2.55677E+00	-1.09623E+00	 9.57322E-01
     0.136	 5.00000E+00	 0.00000E+00	 0.00000E+00	 3.25247E+00	 2.84991E+02	 5.58152E-01	 1.44145E-02	 5.58070E-01	 1.72759E-02	-4.58776E-02	 7.29300E+00	 2.17129E-01	 9.63479E-03	 2.15558E+01	 3.43961E+00	-1.04747E+00	 8.53244E-01	 2.69215E+00	 5.85862E+02	 4.93388E-01	 1.38562E-02	 4.93494E-01	 9.33331E-03	-4.45289E-02	 4.43400E+00	 2.39156E-01	 4.51529E-03	 2.64656E+01	 2.55650E+00	-1.09622E+00	 9.57323E-01
     0.140	 5.00000E+00	 0.00000E+00	 0.00000E+00	 3.25364E+00	 2.84991E+02	 5.58291E-01	 1.44146E-02	 5.58209E-01	 1.72951E-02	-4.58804E-02	 7.29300E+00	 2.17043E-01	 9.62985E-03	 2.15611E+01	 3.44104E+00	-1.04753E+00	 8.53244E-01	 2.69234E+00	 5.85862E+02	 4.93410E-01	 1.38565E-02	 4.93516E-01	 9.33573E-03	-4.45294E-02	 4.43400E+00	 2.39136E-01	 4.51481E-03	 2.64668E+01	 2.55672E+00	-1.09623E+00	 9.57323E-01
     0.144	 5.00000E+00	 0.00000E+00	 0.00000E+00	 3.25262E+00	 2.84992E+02	 5.58169E-01	 1.44145E-02	 5.58088E-01	 1.72783E-02	-4.58779E-02	 7.29300E+00	 2.17118E-01	 9.63414E-03	 2.15565E+01	 3.43979E+00	-1.04748E+00	 8.53244E-01	 2.69218E+00	 5.85862E+02	 4.93392E-01	 1.38562E-02	 4.93498E-01	 9.33370E-03	-4.45290E-02	 4.43400E+00	 2.39153E-01	 4.51517E-03	 2.64658E+01	 2.55654E+00	-1.09622E+00	 9.57323E-01
     0.148	 5.00000E+00	 0.00000E+00	 0.00000E+00	 3.25351E+00	 2.84991E+02	 5.58275E-01	 1.44146E-02	 5.58194E-01	 1.72930E-02	-4.58801E-02	 7.29300E+00	 2.17053E-01	 9.63038E-03	 2.15605E+01	 3.44088E+00	-1.04753E+00	 8.53244E-01	 2.69231E+00	 5.85862E+02	 4.93407E-01	 1.38564E-02	 4.93513E-01	 9.33539E-03	-4.45293E-02	 4.43400E+00	 2.39139E-01	 4.51487E-03	 2.64666E+01	 2.55669E+00	-1.09623E+00	 9.57323E-01
     0.152	 5.00000E+00	 0.00000E+00	 0.00000E+00	 3.25273E+00	 2.84991E+02	 5.58182E-01	 1.44145E-02	 5.58101E-01	 1.72802E-02	-4.58782E-02	 7.29300E+00	 2.17109E-01	 9.63366E-03	 2.15570E+01	 3.43993E+00	-1.04748E+00	 8.53244E-01	 2.69220E+00	 5.85862E+02	 4.93394E-01	 1.38563E-02	 4.93501E-01	 9.33398E-03	-4.45290E-02	 4.43400E+00	 2.39151E-01	 4.51511E-03	 2.64660E+01	 2.55657E+00	-1.09622E+00	 9.57323E-01
     0.156	 5.00000E+00	 0.00000E+00	 0.00000E+00	 3.25341E+00	 2.84991E+02	 5.58263E-01	 1.44146E-02	 5.58182E-01	 1.72913E-02	-4.58799E-02	 7.29300E+00	 2.17060E-01	 9.63080E-03	 2.15601E+01	 3.44076E+00	-1.04752E+00	 8.53244E-01	 2.69229E+00	 5.85862E+02	 4.93405E-01	 1.38564E-02	 4.93511E-01	 9.33516E-03	-4.45293E-02	 4.43400E+00	 2.39141E-01	 4.51493E-03	 2.64665E+01	 2.55667E+00	-1.09623E+00	 9.57323E-01
     0.160	 5.00000E+00	 0.00000E+00	 0.00000E+00	 3.25282E+00	 2.84991E+02	 5.58193E-01	 1.44146E-02	 5.58111E-01	 1.72816E-02	-4.58784E-02	 7.29300E+00	 2.17103E-01	 9.63330E-03	 2.15574E+01	 3.44003E+00	-1.04749E+00	 8.53244E-01	 2.69221E+00	 5.85862E+02	 4.93396E-01	 1.38563E-02	 4.93502E-01	 9.33417E-03	-4.45291E-02	 4.43400E+00	 2.39149E-01	 4.51511E-03	 2.64661E+01	 2.55658E+00	-1.09622E+00	 9.57323E-01
     0.164	 5.00000E+00	 0.00000E+00	 0.00000E+00	 3.25334E+00	 2.84991E+02	 5.58255E-01	 1.44146E-02	 5.58173E-01	 1.72901E-02	-4.58797E-02	 7.29300E+00	 2.17065E-01	 9.63110E-03	 2.15597E+01	 3.44067E+00	-1.04752E+00	 8.53244E-01	 2.69228E+00	 5.85862E+02	 4.93403E-01	 1.38564E-02	 4.93510E-01	 9.33499E-03	-4.45292E-02	 4.43400E+00	 2.39142E-01	 4.51493E-03	 2.64664E+01	 2.55666E+00	-1.09623E+00	 9.57323E-01
     0.168	 5.00000E+00	 0.00000E+00	 0.00000E+00	 3.25288E+00	 2.84991E+02	 5.58200E-01	 1.44146E-02	 5.58119E-01	 1.72826E-02	-4.58786E-02	 7.29300E+00	 2.17099E-01	 9.63300E-03	 2.15577E+01	 3.44011E+00	-1.04749E+00	 8.53244E-01	 2.69223E+00	 5.85862E+02	 4.93397E-01	 1.38563E-02	 4.93504E-01	 9.33432E-03	-4.45291E-02	 4.43400E+00	 2.39148E-01	 4.51505E-03	 2.64661E+01	 2.55660E+00	-1.09622E+00	 9.57323E-01
     0.172	 5.00000E+00	 0.00000E+00	 0.00000E+00	 3.25328E+00	 2.84991E+02	 5.58248E-01	 1.44146E-02	 5.58166E-01	 1.72892E-02	-4.58796E-02	 7.29300E+00	 2.17069E-01	 9.63134E-03	 2.15595E+01	 3.44060E+00	-1.04751E+00	 8.53244E-01	 2.69227E+00	 5.85862E+02	 4.93403E-01	 1.38564E-02	 4.93509E-01	 9.33491E-03	-4.45292E-02	 4.43400E+00	 2.39143E-01	 4.51493E-03	 2.64664E+01	 2.55665E+00	-1.09623E+00	 9.57322E-01
     0.176	 5.00000E+00	 0.00000E+00	 0.00000E+00	 3.25293E+00	 2.84991E+02	 5.58206E-01	 1.44146E-02	 5.58125E-01	 1.72835E-02	-4.58787E-02	 7.29300E+00	 2.17095E-01	 9.63283E-03	 2.15579E+01	 3.44017E+00	-1.04749E+00	 8.53244E-01	 2.69223E+00	 5.85862E+02	 4.93398E-01	 1.38563E-02	 4.93504E-01	 9.33440E-03	-4.45291E-02	 4.43400E+00	 2.39147E-01	 4.51505E-03	 2.64662E+01	 2.55660E+00	-1.09622E+00	 9.57323E-01
     0.180	 5.00000E+00	 0.00000E+00	 0.00000E+00	 3.25324E+00	 2.84991E+02	 5.58242E-01	 1.44146E-02	 5.58161E-01	 1.72884E-02	-4.58794E-02	 7.29300E+00	 2.17073E-01	 9.63157E-03	 2.15593E+01	 3.44054E+00	-1.04751E+00	 8.53244E-01	 2.69227E+00	 5.85862E+02	 4.93402E-01	 1.38564E-02	 4.93508E-01	 9.33483E-03	-4.45292E-02	 4.43400E+00	 2.39144E-01	 4.51493E-03	 2.64664E+01	 2.55664E+00	-1.09623E+00	 9.57323E-01
     0.184	 5.00000E+00	 0.00000E+00	 0.00000E+00	 3.25297E+00	 2.84991E+02	 5.58211E-01	 1.44146E-02	 5.58130E-01	 1.72841E-02	-4.58788E-02	 7.29300E+00	 2.17092E-01	 9.63265E-03	 2.15581E+01	 3.44022E+00	-1.04750E+00	 8.53244E-01	 2.69224E+00	 5.85862E+02	 4.93398E-01	 1.38563E-02	 4.93505E-01	 9.33444E-03	-4.45291E-02	 4.43400E+00	 2.39147E-01	 4.51505E-03	 2.64662E+01	 2.55661E+00	-1.09622E+00	 9.57323E-01
     0.188	 5.00000E+00	 0.00000E+00	 0.00000E+00	 3.25320E+00	 2.84991E+02	 5.58239E-01	 1.44146E-02	 5.58157E-01	 1.72879E-02	-4.58794E-02	 7.29300E+00	 2.17075E-01	 9.63169E-03	 2.15591E+01	 3.44050E+00	-1.04751E+00	 8.53244E-01	 2.69226E+00	 5.85862E+02	 4.93402E-01	 1.38564E-02	 4.93508E-01	 9.33478E-03	-4.45292E-02	 4.43400E+00	 2.39144E-01	 4.51493E-03	 2.64663E+01	 2.55664E+00	-1.09623E+00	 9.57322E-01
     0.192	 5.00000E+00	 0.00000E+00	 0.00000E+00	 3.25300E+00	 2.84991E+02	 5.58215E-01	 1.44146E-02	 5.58133E-01	 1.72846E-02	-4.58789E-02	 7.29300E+00	 2.17090E-01	 9.63253E-03	 2.15582E+01	 3.44026E+00	-1.04750E+00	 8.53244E-01	 2.69224E+00	 5.85861E+02	 4.93399E-01	 1.38563E-02	 4.93505E-01	 9.33450E-03	-4.45291E-02	 4.43400E+00	 2.39147E-01	 4.51499E-03	 2.64662E+01	 2.55661E+00	-1.09622E+00	 9.57322E-01
     0.196	 5.00000E+00	 0.00000E+00	 0.00000E+00	 3.25318E+00	 2.84991E+02	 5.58235E-01	 1.44146E-02	 5.58154E-01	 1.72875E-02	-4.58793E-02	 7.29300E+00	 2.17077E-01	 9.63181E-03	 2.15590E+01	 3.44047E+00	-1.04751E+00	 8.53244E-01	 2.69226E+00	 5.85862E+02	 4.93401E-01	 1.38563E-02	 4.93507E-01	 9.33474E-03	-4.45292E-02	 4.43400E+00	 2.39145E-01	 4.51499E-03	 2.64663E+01	 2.55663E+00	-1.09623E+00	 9.57322E-01
     0.200	 5.00000E+00	 0.00000E+00	 0.00000E+00	 3.25302E+00	 2.84991E+02	 5.58217E-01	 1.44146E-02	 5.58136E-01	 1.72850E-02	-4.58789E-02	 7.29300E+00	 2.17088E-01	 9.63241E-03	 2.15583E+01	 3.44028E+00	-1.04750E+00	 8.53244E-01	 2.69224E+00	 5.85861E+02	 4.93399E-01	 1.38563E-02	 4.93506E-01	 9.33455E-03	-4.45292E-02	 4.43400E+00	 2.39146E-01	 4.51499E-03	 2.64662E+01	 2.55662E+00	-1.09623E+00	 9.57322E-01
     0.204	 5.00000E+00	 0.00000E+00	 0.00000E+00	 3.25316E+00	 2.84991E+02	 5.58233E-01	 1.44146E-02	 5.58152E-01	 1.72872E-02	-4.58793E-02	 7.29300E+00	 2.17078E-01	 9.63187E-03	 2.15589E+01	 3.44045E+00	-1.04751E+00	 8.53244E-01	 2.69226E+00	 5.85862E+02	 4.93401E-01	 1.38563E-02	 4.93507E-01	 9.33471E-03	-4.45292E-02	 4.43400E+00	 2.39145E-01	 4.51499E-03	 2.64663E+01	 2.55663E+00	-1.09623E+00	 9.57322E-01
     0.208	 5.00000E+00	 0.00000E+00	 0.00000E+00	 3.25304E+00	 2.84991E+02	 5.58219E-01	 1.44146E-02	 5.58137E-01	 1.72852E-02	-4.58790E-02	 7.29300E+00	 2.17087E-01	 9.63235E-03	 2.15584E+01	 3.44030E+00	-1.04750E+00	 8.53244E-01	 2.69224E+00	 5.85862E+02	 4.93399E-01	 1.38563E-02	 4.93506E-01	 9.33456E-03	-4.45292E-02	 4.43400E+00	 2.39146E-01	 4.51499E-03	 2.64662E+01	 2.55662E+00	-1.09623E+00	 9.57323E-01
     0.212	 5.00000E+00	 0.00000E+00	 0.00000E+00	 3.25314E+00	 2.84991E+02	 5.58231E-01	 1.44146E-02	 5.58150E-01	 1.72869E-02	-4.58792E-02	 7.29300E+00	 2.17080E-01	 9.63193E-03	 2.15589E+01	 3.44043E+00	-1.04751E+00	 8.53244E-01	 2.69226E+00	 5.85861E+02	 4.93401E-01	 1.38563E-02	 4.93507E-01	 9.33471E-03	-4.45292E-02	 4.43400E+00	 2.39145E-01	 4.51499E-03	 2.64663E+01	 2.55663E+00	-1.09623E+00	 9.57322E-01
     0.216	 5.00000E+00	 0.00000E+00	 0.00000E+00	 3.25306E+00	 2.84991E+02	 5.58221E-01	 1.44146E-02	 5.58139E-01	 1.72855E-02	-4.58790E-02	 7.29300E+00	 2.17086E-01	 9.63229E-03	 2.15584E+01	 3.44032E+00	-1.04750E+00	 8.53244E-01	 2.69224E+00	 5.85862E+02	 4.93399E-01	 1.38563E-02	 4.93506E-01	 9.33456E-03	-4.45292E-02	 4.43400E+00	 2.39146E-01	 4.51499E-03	 2.64662E+01	 2.55662E+00	-1.09623E+00	 9.57322E-01
     0.220	 5.00000E+00	 0.00000E+00	 0.00000E+00	 3.25313E+00	 2.84991E+02	 5.58230E-01	 1.44146E-02	 5.58149E-01	 1.72867E-02	-4.58792E-02	 7.29300E+00	 2.17080E-01	 9.63199E-03	 2.15588E+01	 3.44041E+00	-1.04750E+00	 8.53244E-01	 2.69226E+00	 5.85862E+02	 4.93401E-01	 1.38563E-02	 4.93507E-01	 9.33469E-03	-4.45292E-02	 4.43400E+00	 2.39145E-01	 4.51499E-03	 2.64663E+01	 2.55663E+00	-1.09623E+00	 9.57323E-01
     0.224	 5.00000E+00	 0.00000E+00	 0.00000E+00	 3.25306E+00	 2.84991E+02	 5.58222E-01	 1.44146E-02	 5.58140E-01	 1.72856E-02	-4.58790E-02	 7.29300E+00	 2.17085E-01	 9.63229E-03	 2.15585E+01	 3.44033E+00	-1.04750E+00	 8.53244E-01	 2.69225E+00	 5.85861E+02	 4.93400E-01	 1.38563E-02	 4.93506E-01	 9.33459E-03	-4.45292E-02	 4.43400E+00	 2.39146E-01	 4.51499E-03	 2.64662E+01	 2.55662E+00	-1.09623E+00	 9.57322E-01
     0.228	 5.00000E+00	 0.00000E+00	 0.00000E+00	 3.25312E+00	 2.84991E+02	 5.58229E-01	 1.44146E-02	 5.58148E-01	 1.72866E-02	-4.58792E-02	 7.29300E+00	 2.17081E-01	 9.63199E-03	 2.15588E+01	 3.44041E+00	-1.04750E+00	 8.53244E-01	 2.69225E+00	 5.85862E+02	 4.93400E-01	 1.38563E-02	 4.93507E-01	 9.33466E-03	-4.45292E-02	 4.43400E+00	 2.39145E-01	 4.51499E-03	 2.64663E+01	 2.55663E+00	-1.09623E+00	 9.57322E-01
     0.232	 5.00000E+00	 0.00000E+00	 0.00000E+00	 3.25307E+00	 2.84991E+02	 5.58223E-01	 1.44146E-02	 5.58141E-01	 1.72858E-02	-4.58790E-02	 7.29300E+00	 2.17085E-01	 9.63223E-03	 2.15585E+01	 3.44034E+00	-1.04750E+00	 8.53244E-01	 2.69225E+00	 5.85861E+02	 4.93400E-01	 1.38563E-02	 4.93506E-01	 9.33461E-03	-4.45292E-02	 4.43400E+00	 2.39146E-01	 4.51499E-03	 2.64663E+01	 2.55662E+00	-1.09623E+00	 9.57322E-01
     0.236	 5.00000E+00	 0.00000E+00	 0.00000E+00	 3.25312E+00	 2.84991E+02	 5.58228E-01	 1.44146E-02	 5.58147E-01	 1.72865E-02	-4.58791E-02	 7.29300E+00	 2.17082E-01	 9.63205E-03	 2.15587E+01	 3.44039E+00	-1.04750E+00	 8.53244E-01	 2.69225E+00	 5.85861E+02	 4.93400E-01	 1.38563E-02	 4.93507E-01	 9.33466E-03	-4.45292E-02	 4.43400E+00	 2.39145E-01	 4.51499E-03	 2.64663E+01	 2.55663E+00	-1.09623E+00	 9.57322E-01
     0.240	 5.00000E+00	 0.00000E+00	 0.00000E+00	 3.25308E+00	 2.84991E+02	 5.58224E-01	 1.44146E-02	 5.58142E-01	 1.72858E-02	-4.58791E-02	 7.29300E+00	 2.17084E-01	 9.63223E-03	 2.15586E+01	 3.44035E+00	-1.04750E+00	 8.53244E-01	 2.69225E+00	 5.85862E+02	 4.93400E-01	 1.38563E-02	 4.93506E-01	 9.33461E-03	-4.45292E-02	 4.43400E+00	 2.39146E-01	 4.51499E-03	 2.64663E+01	 2.55662E+00	-1.09623E+00	 9.57322E-01
     0.244	 5.00000E+00	 0.00000E+00	 0.00000E+00	 3.25311E+00	 2.84991E+02	 5.58228E-01	 1.44146E-02	 5.58146E-01	 1.72864E-02	-4.58791E-02	 7.29300E+00	 2.17082E-01	 9.63205E-03	 2.15587E+01	 3.44039E+00	-1.04750E+00	 8.53244E-01	 2.69225E+00	 5.85861E+02	 4.93400E-01	 1.38563E-02	 4.93507E-01	 9.33465E-03	-4.45292E-02	 4.43400E+00	 2.39145E-01	 4.51499E-03	 2.64663E+01	 2.55663E+00	-1.09623E+00	 9.57322E-01
     0.248	 5.00000E+00	 0.00000E+00	 0.00000E+00	 3.25308E+00	 2.84991E+02	 5.58224E-01	 1.44146E-02	 5.58143E-01	 1.72860E-02	-4.58791E-02	 7.29300E+00	 2.17084E-01	 9.63217E-03	 2.15586E+01	 3.44036E+00	-1.04750E+00	 8.53244E-01	 2.69225E+00	 5.85862E+02	 4.93400E-01	 1.38563E-02	 4.93506E-01	 9.33463E-03	-4.45292E-02	 4.43400E+00	 2.39145E-01	 4.51499E-03	 2.64663E+01	 2.55662E+00	-1.09623E+00	 9.57322E-01
     0.252	 5.00000E+00	 0.00000E+00	 0.00000E+00	 3.25311E+00	 2.84991E+02	 5.58227E-01	 1.44146E-02	 5.58146E-01	 1.72864E-02	-4.58791E-02	 7.29300E+00	 2.17082E-01	 9.63205E-03	 2.15587E+01	 3.44039E+00	-1.04750E+00	 8.53244E-01	 2.69225E+00	 5.85862E+02	 4.93400E-01	 1.38563E-02	 4.93506E-01	 9.33462E-03	-4.45292E-02	 4.43400E+00	 2.39146E-01	 4.51499E-03	 2.64663E+01	 2.55662E+00	-1.09623E+00	 9.57323E-01
     0.256	 5.00000E+00	 0.00000E+00	 0.00000E+00	 3.25309E+00	 2.84991E+02	 5.58225E-01	 1.44146E-02	 5.58143E-01	 1.72860E-02	-4.58791E-02	 7.29300E+00	 2.17084E-01	 9.63217E-03	 2.15586E+01	 3.44036E+00	-1.04750E+00	 8.53244E-01	 2.69225E+00	 5.85862E+02	 4.93400E-01	 1.38563E-02	 4.93506E-01	 9.33464E-03	-4.45292E-02	 4.43400E+00	 2.39145E-01	 4.51499E-03	 2.64663E+01	 2.55663E+00	-1.09623E+00	 9.57322E-01
     0.260	 5.00000E+00	 0.00000E+00	 0.00000E+00	 3.25311E+00	 2.84991E+02	 5.58227E-01	 1.44146E-02	 5.58146E-01	 1.72863E-02	-4.58791E-02	 7.29300E+00	 2.17082E-01	 9.63211E-03	 2.15587E+01	 3.44038E+00	-1.04750E+00	 8.53244E-01	 2.69225E+00	 5.85862E+02	 4.93400E-01	 1.38563E-02	 4.93506E-01	 9.33462E-03	-4.45292E-02	 4.43400E+00	 2.39146E-01	 4.51499E-03	 2.64663E+01	 2.55662E+00	-1.09623E+00	 9.57322E-01
     0.264	 5.00000E+00	 0.00000E+00	 0.00000E+00	 3.25309E+00	 2.84991E+02	 5.58225E-01	 1.44146E-02	 5.58143E-01	 1.72860E-02	-4.58791E-02	 7.29300E+00	 2.17084E-01	 9.63217E-03	 2.15586E+01	 3.44036E+00	-1.04750E+00	 8.53244E-01	 2.69225E+00	 5.85862E+02	 4.93400E-01	 1.38563E-02	 4.93506E-01	 9.33464E-03	-4.45292E-02	 4.43400E+00	 2.39145E-01	 4.51499E-03	 2.64663E+01	 2.55663E+00	-1.09623E+00	 9.57322E-01
     0.268	 5.00000E+00	 0.00000E+00	 0.00000E+00	 3.25310E+00	 2.84991E+02	 5.58227E-01	 1.44146E-02	 5.58145E-01	 1.72863E-02	-4.58791E-02	 7.29300E+00	 2.17082E-01	 9.63211E-03	 2.15587E+01	 3.44038E+00	-1.04750E+00	 8.53244E-01	 2.69225E+00	 5.85862E+02	 4.93400E-01	 1.38563E-02	 4.93506E-01	 9.33462E-03	-4.45292E-02	 4.43400E+00	 2.39146E-01	 4.51499E-03	 2.64663E+01	 2.55662E+00	-1.09623E+00	 9.57323E-01
     0.272	 5.00000E+00	 0.00000E+00	 0.00000E+00	 3.25309E+00	 2.84991E+02	 5.58225E-01	 1.44146E-02	 5.58143E-01	 1.72860E-02	-4.58791E-02	 7.29300E+00	 2.17083E-01	 9.63217E-03	 2.15586E+01	 3.44036E+00	-1.04750E+00	 8.53244E-01	 2.69225E+00	 5.85862E+02	 4.93400E-01	 1.38563E-02	 4.93506E-01	 9.33464E-03	-4.45292E-02	 4.43400E+00	 2.39145E-01	 4.51499E-03	 2.64663E+01	 2.55663E+00	-1.09623E+00	 9.57322E-01
     0.276	 5.00000E+00	 0.00000E+00	 0.00000E+00	 3.25310E+00	 2.84991E+02	 5.58227E-01	 1.44146E-02	 5.58145E-01	 1.72863E-02	-4.58791E-02	 7.29300E+00	 2.17083E-01	 9.63211E-03	 2.15587E+01	 3.44038E+00	-1.04750E+00	 8.53244E-01	 2.69225E+00	 5.85861E+02	 4.93400E-01	 1.38563E-02	 4.93506E-01	 9.33463E-03	-4.45292E-02	 4.43400E+00	 2.39146E-01	 4.51499E-03	 2.64663E+01	 2.55662E+00	-1.09623E+00	 9.57322E-01
     0.280	 5.00000E+00	 0.00000E+00	 0.00000E+00	 3.25309E+00	 2.84991E+02	 5.58225E-01	 1.44146E-02	 5.58144E-01	 1.72861E-02	-4.58791E-02	 7.29300E+00	 2.17083E-01	 9.63217E-03	 2.15586E+01	 3.44036E+00	-1.04750E+00	 8.53244E-01	 2.69225E+00	 5.85862E+02	 4.93400E-01	 1.38563E-02	 4.93507E-01	 9.33465E-03	-4.45292E-02	 4.43400E+00	 2.39145E-01	 4.51499E-03	 2.64663E+01	 2.55663E+00	-1.09623E+00	 9.57322E-01
     0.284	 5.00000E+00	 0.00000E+00	 0.00000E+00	 3.25310E+00	 2.84991E+02	 5.58227E-01	 1.44146E-02	 5.58145E-01	 1.72863E-02	-4.58791E-02	 7.29300E+00	 2.17083E-01	 9.63211E-03	 2.15587E+01	 3.44038E+00	-1.04750E+00	 8.53244E-01	 2.69225E+00	 5.85861E+02	 4.93400E-01	 1.38563E-02	 4.93506E-01	 9.33462E-03	-4.45292E-02	 4.43400E+00	 2.39146E-01	 4.51499E-03	 2.64663E+01	 2.55662E+00	-1.09623E+00	 9.57322E-01
     0.288	 5.00000E+00	 0.00000E+00	 0.00000E+00	 3.25309E+00	 2.84991E+02	 5.58225E-01	 1.44146E-02	 5.58144E-01	 1.72861E-02	-4.58791E-02	 7.29300E+00	 2.17083E-01	 9.63217E-03	 2.15586E+01	 3.44036E+00	-1.04750E+00	 8.53244E-01	 2.69225E+00	 5.85862E+02	 4.93400E-01	 1.38563E-02	 4.93506E-01	 9.33464E-03	-4.45292E-02	 4.43400E+00	 2.39145E-01	 4.51499E-03	 2.64663E+01	 2.55663E+00	-1.09623E+00	 9.57322E-01
     0.292	 5.00000E+00	 0.00000E+00	 0.00000E+00	 3.25310E+00	 2.84991E+02	 5.58226E-01	 1.44146E-02	 5.58145E-01	 1.72862E-02	-4.58791E-02	 7.29300E+00	 2.17083E-01	 9.63211E-03	 2.15587E+01	 3.44038E+00	-1.04750E+00	 8.53244E-01	 2.69225E+00	 5.85861E+02	 4.93400E-01	 1.38563E-02	 4.93506E-01	 9.33463E-03	-4.45292E-02	 4.43400E+00	 2.39146E-01	 4.51499E-03	 2.64663E+01	 2.55662E+00	-1.09623E+00	 9.57322E-01
     0.296	 5.00000E+00	 0.00000E+00	 0.00000E+00	 3.25309E+00	 2.84991E+02	 5.58226E-01	 1.44146E-02	 5.58144E-01	 1.72861E-02	-4.58791E-02	 7.29300E+00	 2.17083E-01	 9.63217E-03	 2.15586E+01	 3.44037E+00	-1.04750E+00	 8.53244E-01	 2.69225E+00	 5.85862E+02	 4.93400E-01	 1.38563E-02	 4.93506E-01	 9.33463E-03	-4.45292E-02	 4.43400E+00	 2.39145E-01	 4.51499E-03	 2.64663E+01	 2.55662E+00	-1.09623E+00	 9.57322E-01
     0.300	 5.00000E+00	 0.00000E+00	 0.00000E+00	 3.25310E+00	 2.84991E+02	 5.58226E-01	 1.44146E-02	 5.58145E-01	 1.72862E-02	-4.58791E-02	 7.29300E+00	 2.17083E-01	 9.63211E-03	 2.15586E+01	 3.44037E+00	-1.04750E+00	 8.53244E-01	 2.69225E+00	 5.85861E+02	 4.93400E-01	 1.38563E-02	 4.93506E-01	 9.33464E-03	-4.45292E-02	 4.43400E+00	 2.39146E-01	 4.51499E-03	 2.64663E+01	 2.55662E+00	-1.09623E+00	 9.57322E-01
     0.304	 5.00000E+00	 0.00000E+00	 0.00000E+00	 3.25309E+00	 2.84991E+02	 5.58225E-01	 1.44146E-02	 5.58144E-01	 1.72861E-02	-4.58791E-02	 7.29300E+00	 2.17083E-01	 9.63211E-03	 2.15586E+01	 3.44037E+00	-1.04750E+00	 8.53244E-01	 2.69225E+00	 5.85862E+02	 4.93400E-01	 1.38563E-02	 4.93506E-01	 9.33464E-03	-4.45292E-02	 4.43400E+00	 2.39145E-01	 4.51499E-03	 2.64663E+01	 2.55663E+00	-1.09623E+00	 9.57322E-01
     0.308	 5.00000E+00	 0.00000E+00	 0.00000E+00	 3.25310E+00	 2.84991E+02	 5.58226E-01	 1.44146E-02	 5.58145E-01	 1.72862E-02	-4.58791E-02	 7.29300E+00	 2.17083E-01	 9.63211E-03	 2.15586E+01	 3.44037E+00	-1.04750E+00	 8.53244E-01	 2.69225E+00	 5.85862E+02	 4.93400E-01	 1.38563E-02	 4.93506E-01	 9.33462E-03	-4.45292E-02	 4.43400E+00	 2.39146E-01	 4.51499E-03	 2.64663E+01	 2.55662E+00	-1.09623E+00	 9.57322E-01
     0.312	 5.00000E+00	 0.00000E+00	 0.00000E+00	 3.25309E+00	 2.84991E+02	 5.58226E-01	 1.44146E-02	 5.58144E-01	 1.72861E-02	-4.58791E-02	 7.29300E+00	 2.17083E-01	 9.63211E-03	 2.15586E+01	 3.44037E+00	-1.04750E+00	 8.53244E-01	 2.69225E+00	 5.85862E+02	 4.93400E-01	 1.38563E-02	 4.93507E-01	 9.33465E-03	-4.45292E-02	 4.43400E+00	 2.39145E-01	 4.51499E-03	 2.64663E+01	 2.55663E+00	-1.09623E+00	 9.57322E-01
     0.316	 5.00000E+00	 0.00000E+00	 0.00000E+00	 3.25310E+00	 2.84991E+02	 5.58226E-01	 1.44146E-02	 5.58145E-01	 1.72862E-02	-4.58791E-02	 7.29300E+00	 2.17083E-01	 9.63211E-03	 2.15586E+01	 3.44037E+00	-1.04750E+00	 8.53244E-01	 2.69225E+00	 5.85861E+02	 4.93400E-01	 1.38563E-02	 4.93506E-01	 9.33462E-03	-4.45292E-02	 4.43400E+00	 2.39146E-01	 4.51499E-03	 2.64663E+01	 2.55662E+00	-1.09623E+00	 9.57322E-01
     0.320	 5.00000E+00	 0.00000E+00	 0.00000E+00	 3.25310E+00	 2.84991E+02	 5.58226E-01	 1.44146E-02	 5.58144E-01	 1.72861E-02	-4.58791E-02	 7.29300E+00	 2.17083E-01	 9.63211E-03	 2.15586E+01	 3.44037E+00	-1.04750E+00	 8.53244E-01	 2.69225E+00	 5.85861E+02	 4.93400E-01	 1.38563E-02	 4.93507E-01	 9.33465E-03	-4.45292E-02	 4.43400E+00	 2.39145E-01	 4.51499E-03	 2.64663E+01	 2.55663E+00	-1.09623E+00	 9.57322E-01
     0.324	 5.00000E+00	 0.00000E+00	 0.00000E+00	 3.25310E+00	 2.84991E+02	 5.58226E-01	 1.44146E-02	 5.58145E-01	 1.72862E-02	-4.58791E-02	 7.29300E+00	 2.17083E-01	 9.63211E-03	 2.15586E+01	 3.44037E+00	-1.04750E+00	 8.53244E-01	 2.69225E+00	 5.85862E+02	 4.93400E-01	 1.38563E-02	 4.93506E-01	 9.33462E-03	-4.45292E-02	 4.43400E+00	 2.39146E-01	 4.51499E-03	 2.64663E+01	 2.55662E+00	-1.09623E+00	 9.57322E-01
     0.328	 5.00000E+00	 0.00000E+00	 0.00000E+00	 3.25309E+00	 2.84991E+02	 5.58225E-01	 1.44146E-02	 5.58144E-01	 1.72861E-02	-4.58791E-02	 7.29300E+00	 2.17083E-01	 9.63211E-03	 2.15586E+01	 3.44037E+00	-1.04750E+00	 8.53244E-01	 2.69225E+00	 5.85862E+02	 4.93400E-01	 1.38563E-02	 4.93506E-01	 9.33464E-03	-4.45292E-02	 4.43400E+00	 2.39145E-01	 4.51499E-03	 2.64663E+01	 2.55663E+00	-1.09623E+00	 9.57322E-01
     0.332	 5.00000E+00	 0.00000E+00	 0.00000E+00	 3.25310E+00	 2.84991E+02	 5.58226E-01	 1.44146E-02	 5.58145E-01	 1.72862E-02	-4.58791E-02	 7.29300E+00	 2.17083E-01	 9.63211E-03	 2.15586E+01	 3.44037E+00	-1.04750E+00	 8.53244E-01	 2.69225E+00	 5.85861E+02	 4.93400E-01	 1.38563E-02	 4.93506E-01	 9.33463E-03	-4.45292E-02	 4.43400E+00	 2.39146E-01	 4.51499E-03	 2.64663E+01	 2.55662E+00	-1.09623E+00	 9.57322E-01
     0.336	 5.00000E+00	 0.00000E+00	 0.00000E+00	 3.25310E+00	 2.84991E+02	 5.58226E-01	 1.44146E-02	 5.58144E-01	 1.72861E-02	-4.58791E-02	 7.29300E+00	 2.17083E-01	 9.63211E-03	 2.15586E+01	 3.44037E+00	-1.04750E+00	 8.53244E-01	 2.69225E+00	 5.85862E+02	 4.93400E-01	 1.38563E-02	 4.93506E-01	 9.33464E-03	-4.45292E-02	 4.43400E+00	 2.39145E-01	 4.51499E-03	 2.64663E+01	 2.55663E+00	-1.09623E+00	 9.57322E-01
     0.340	 5.00000E+00	 0.00000E+00	 0.00000E+00	 3.25310E+00	 2.84991E+02	 5.58226E-01	 1.44146E-02	 5.58144E-01	 1.72862E-02	-4.58791E-02	 7.29300E+00	 2.17083E-01	 9.63211E-03	 2.15586E+01	 3.44037E+00	-1.04750E+00	 8.53244E-01	 2.69225E+00	 5.85861E+02	 4.93400E-01	 1.38563E-02	 4.93506E-01	 9.33463E-03	-4.45292E-02	 4.43400E+00	 2.39146E-01	 4.51499E-03	 2.64663E+01	 2.55662E+00	-1.09623E+00	 9.57322E-01
     0.344	 5.00000E+00	 0.00000E+00	 0.00000E+00	 3.25310E+00	 2.84991E+02	 5.58226E-01	 1.44146E-02	 5.58144E-01	 1.72861E-02	-4.58791E-02	 7.29300E+00	 2.17083E-01	 9.63211E-03	 2.15586E+01	 3.44037E+00	-1.04750E+00	 8.53244E-01	 2.69225E+00	 5.85862E+02	 4.93400E-01	 1.38563E-02	 4.93506E-01	 9.33464E-03	-4.45292E-02	 4.43400E+00	 2.39145E-01	 4.51499E-03	 2.64663E+01	 2.55663E+00	-1.09623E+00	 9.57322E-01
     0.348	 5.00000E+00	 0.00000E+00	 0.00000E+00	 3.25310E+00	 2.84991E+02	 5.58226E-01	 1.44146E-02	 5.58144E-01	 1.72862E-02	-4.58791E-02	 7.29300E+00	 2.17083E-01	 9.63211E-03	 2.15586E+01	 3.44037E+00	-1.04750E+00	 8.53244E-01	 2.69225E+00	 5.85862E+02	 4.93400E-01	 1.38563E-02	 4.93506E-01	 9.33460E-03	-4.45292E-02	 4.43400E+00	 2.39146E-01	 4.51499E-03	 2.64663E+01	 2.55662E+00	-1.09623E+00	 9.57323E-01
     0.352	 5.00000E+00	 0.00000E+00	 0.00000E+00	 3.25310E+00	 2.84991E+02	 5.58226E-01	 1.44146E-02	 5.58144E-01	 1.72861E-02	-4.58791E-02	 7.29300E+00	 2.17083E-01	 9.63211E-03	 2.15586E+01	 3.44037E+00	-1.04750E+00	 8.53244E-01	 2.69225E+00	 5.85861E+02	 4.93400E-01	 1.38563E-02	 4.93507E-01	 9.33466E-03	-4.45292E-02	 4.43400E+00	 2.39145E-01	 4.51499E-03	 2.64663E+01	 2.55663E+00	-1.09623E+00	 9.57322E-01
     0.356	 5.00000E+00	 0.00000E+00	 0.00000E+00	 3.25310E+00	 2.84991E+02	 5.58226E-01	 1.44146E-02	 5.58145E-01	 1.72862E-02	-4.58791E-02	 7.29300E+00	 2.17083E-01	 9.63211E-03	 2.15586E+01	 3.44037E+00	-1.04750E+00	 8.53244E-01	 2.69225E+00	 5.85861E+02	 4.93400E-01	 1.38563E-02	 4.93506E-01	 9.33463E-03	-4.45292E-02	 4.43400E+00	 2.39146E-01	 4.51499E-03	 2.64663E+01	 2.55662E+00	-1.09623E+00	 9.57322E-01
     0.360	 5.00000E+00	 0.00000E+00	 0.00000E+00	 3.25309E+00	 2.84991E+02	 5.58225E-01	 1.44146E-02	 5.58144E-01	 1.72861E-02	-4.58791E-02	 7.29300E+00	 2.17083E-01	 9.63211E-03	 2.15586E+01	 3.44037E+00	-1.04750E+00	 8.53244E-01	 2.69225E+00	 5.85862E+02	 4.93400E-01	 1.38563E-02	 4.93506E-01	 9.33464E-03	-4.45292E-02	 4.43400E+00	 2.39145E-01	 4.51499E-03	 2.64663E+01	 2.55663E+00	-1.09623E+00	 9.57323E-01
     0.364	 5.00000E+00	 0.00000E+00	 0.00000E+00	 3.25310E+00	 2.84991E+02	 5.58226E-01	 1.44146E-02	 5.58144E-01	 1.72862E-02	-4.58791E-02	 7.29300E+00	 2.17083E-01	 9.63211E-03	 2.15586E+01	 3.44037E+00	-1.04750E+00	 8.53244E-01	 2.69225E+00	 5.85862E+02	 4.93400E-01	 1.38563E-02	 4.93506E-01	 9.33461E-03	-4.45292E-02	 4.43400E+00	 2.39146E-01	 4.51499E-03	 2.64663E+01	 2.55662E+00	-1.09623E+00	 9.57322E-01
     0.368	 5.00000E+00	 0.00000E+00	 0.00000E+00	 3.25310E+00	 2.84991E+02	 5.58226E-01	 1.44146E-02	 5.58144E-01	 1.72861E-02	-4.58791E-02	 7.29300E+00	 2.17083E-01	 9.63211E-03	 2.15586E+01	 3.44037E+00	-1.04750E+00	 8.53244E-01	 2.69225E+00	 5.85862E+02	 4.93400E-01	 1.38563E-02	 4.93507E-01	 9.33466E-03	-4.45292E-02	 4.43400E+00	 2.39145E-01	 4.51499E-03	 2.64663E+01	 2.55663E+00	-1.09623E+00	 9.57322E-01
     0.372	 5.00000E+00	 0.00000E+00	 0.00000E+00	 3.25310E+00	 2.84991E+02	 5.58226E-01	 1.44146E-02	 5.58144E-01	 1.72862E-02	-4.58791E-02	 7.29300E+00	 2.17083E-01	 9.63211E-03	 2.15586E+01	 3.44037E+00	-1.04750E+00	 8.53244E-01	 2.69225E+00	 5.85861E+02	 4.93400E-01	 1.38563E-02	 4.93506E-01	 9.33462E-03	-4.45292E-02	 4.43400E+00	 2.39146E-01	 4.51499E-03	 2.64663E+01	 2.55662E+00	-1.09623E+00	 9.57322E-01
     0.376	 5.00000E+00	 0.00000E+00	 0.00000E+00	 3.25310E+00	 2.84991E+02	 5.58226E-01	 1.44146E-02	 5.58144E-01	 1.72861E-02	-4.58791E-02	 7.29300E+00	 2.17083E-01	 9.63211E-03	 2.15586E+01	 3.44037E+00	-1.04750E+00	 8.53244E-01	 2.69225E+00	 5.85862E+02	 4.93400E-01	 1.38563E-02	 4.93507E-01	 9.33465E-03	-4.45292E-02	 4.43400E+00	 2.39145E-01	 4.51499E-03	 2.64663E+01	 2.55663E+00	-1.09623E+00	 9.57322E-01
     0.380	 5.00000E+00	 0.00000E+00	 0.00000E+00	 3.25310E+00	 2.84991E+02	 5.58226E-01	 1.44146E-02	 5.58145E-01	 1.72862E-02	-4.58791E-02	 7.29300E+00	 2.17083E-01	 9.63211E-03	 2.15586E+01	 3.44037E+00	-1.04750E+00	 8.53244E-01	 2.69225E+00	 5.85862E+02	 4.93400E-01	 1.38563E-02	 4.93506E-01	 9.33462E-03	-4.45292E-02	 4.43400E+00	 2.39146E-01	 4.51499E-03	 2.64663E+01	 2.55662E+00	-1.09623E+00	 9.57323E-01
     0.384	 5.00000E+00	 0.00000E+00	 0.00000E+00	 3.25310E+00	 2.84991E+02	 5.58226E-01	 1.44146E-02	 5.58144E-01	 1.72861E-02	-4.58791E-02	 7.29300E+00	 2.17083E-01	 9.63211E-03	 2.15586E+01	 3.44037E+00	-1.04750E+00	 8.53244E-01	 2.69225E+00	 5.85861E+02	 4.93400E-01	 1.38563E-02	 4.93507E-01	 9.33465E-03	-4.45292E-02	 4.43400E+00	 2.39145E-01	 4.51499E-03	 2.64663E+01	 2.55663E+00	-1.09623E+00	 9.57322E-01
     0.388	 5.00000E+00	 0.00000E+00	 0.00000E+00	 3.25310E+00	 2.84991E+02	 5.58226E-01	 1.44146E-02	 5.58144E-01	 1.72862E-02	-4.58791E-02	 7.29300E+00	 2.17083E-01	 9.63211E-03	 2.15586E+01	 3.44037E+00	-1.04750E+00	 8.53244E-01	 2.69225E+00	 5.85861E+02	 4.93400E-01	 1.38563E-02	 4.93507E-01	 9.33465E-03	-4.45292E-02	 4.43400E+00	 2.39145E-01	 4.51499E-03	 2.64663E+01	 2.55662E+00	-1.09623E+00	 9.57322E-01
     0.392	 5.00000E+00	 0.00000E+00	 0.00000E+00	 3.25310E+00	 2.84991E+02	 5.58226E-01	 1.44146E-02	 5.58144E-01	 1.72861E-02	-4.58791E-02	 7.29300E+00	 2.17083E-01	 9.63211E-03	 2.15586E+01	 3.44037E+00	-1.04750E+00	 8.53244E-01	 2.69225E+00	 5.85861E+02	 4.93400E-01	 1.38563E-02	 4.93506E-01	 9.33464E-03	-4.45292E-02	 4.43400E+00	 2.39145E-01	 4.51499E-03	 2.64663E+01	 2.55662E+00	-1.09623E+00	 9.57322E-01
     0.396	 5.00000E+00	 0.00000E+00	 0.00000E+00	 3.25310E+00	 2.84991E+02	 5.58226E-01	 1.44146E-02	 5.58145E-01	 1.72862E-02	-4.58791E-02	 7.29300E+00	 2.17083E-01	 9.63211E-03	 2.15586E+01	 3.44037E+00	-1.04750E+00	 8.53244E-01	 2.69225E+00	 5.85861E+02	 4.93400E-01	 1.38563E-02	 4.93506E-01	 9.33462E-03	-4.45292E-02	 4.43400E+00	 2.39146E-01	 4.51499E-03	 2.64663E+01	 2.55662E+00	-1.09623E+00	 9.57322E-01
     0.400	 5.00000E+00	 0.00000E+00	 0.00000E+00	 3.25310E+00	 2.84991E+02	 5.58226E-01	 1.44146E-02	 5.58144E-01	 1.72861E-02	-4.58791E-02	 7.29300E+00	 2.17083E-01	 9.63211E-03	 2.15586E+01	 3.44037E+00	-1.04750E+00	 8.53244E-01	 2.69225E+00	 5.85861E+02	 4.93400E-01	 1.38563E-02	 4.93506E-01	 9.33464E-03	-4.45292E-02	 4.43400E+00	 2.39145E-01	 4.51499E-03	 2.64663E+01	 2.55662E+00	-1.09623E+00	 9.57322E-01
     0.404	 5.00000E+00	 0.00000E+00	 0.00000E+00	 3.25310E+00	 2.84991E+02	 5.58226E-01	 1.44146E-02	 5.58145E-01	 1.72862E-02	-4.58791E-02	 7.29300E+00	 2.17083E-01	 9.63211E-03	 2.15586E+01	 3.44037E+00	-1.04750E+00	 8.53244E-01	 2.69225E+00	 5.85862E+02	 4.93400E-01	 1.38563E-02	 4.93506E-01	 9.33462E-03	-4.45292E-02	 4.43400E+00	 2.39146E-01	 4.51499E-03	 2.64663E+01	 2.55662E+00	-1.09623E+00	 9.57322E-01
     0.408	 5.00000E+00	 0.00000E+00	 0.00000E+00	 3.25310E+00	 2.84991E+02	 5.58226E-01	 1.44146E-02	 5.58144E-01	 1.72861E-02	-4.58791E-02	 7.29300E+00	 2.17083E-01	 9.63211E-03	 2.15586E+01	 3.44037E+00	-1.04750E+00	 8.53244E-01	 2.69225E+00	 5.85862E+02	 4.93400E-01	 1.38563E-02	 4.93506E-01	 9.33464E-03	-4.45292E-02	 4.43400E+00	 2.39145E-01	 4.51499E-03	 2.64663E+01	 2.55663E+00	-1.09623E+00	 9.57322E-01
     0.412	 5.00000E+00	 0.00000E+00	 0.00000E+00	 3.25310E+00	 2.84991E+02	 5.58226E-01	 1.44146E-02	 5.58144E-01	 1.72862E-02	-4.58791E-02	 7.29300E+00	 2.17083E-01	 9.63211E-03	 2.15586E+01	 3.44037E+00	-1.04750E+00	 8.53244E-01	 2.69225E+00	 5.85861E+02	 4.93400E-01	 1.38563E-02	 4.93506E-01	 9.33462E-03	-4.45292E-02	 4.43400E+00	 2.39146E-01	 4.51499E-03	 2.64663E+01	 2.55662E+00	-1.09623E+00	 9.57322E-01
     0.416	 5.00000E+00	 0.00000E+00	 0.00000E+00	 3.25310E+00	 2.84991E+02	 5.58226E-01	 1.44146E-02	 5.58144E-01	 1.72861E-02	-4.58791E-02	 7.29300E+00	 2.17083E-01	 9.63211E-03	 2.15586E+01	 3.44037E+00	-1.04750E+00	 8.53244E-01	 2.69225E+00	 5.85861E+02	 4.93400E-01	 1.38563E-02	 4.93506E-01	 9.33464E-03	-4.45292E-02	 4.43400E+00	 2.39145E-01	 4.51499E-03	 2.64663E+01	 2.55662E+00	-1.09623E+00	 9.57322E-01
     0.420	 5.00000E+00	 0.00000E+00	 0.00000E+00	 3.25310E+00	 2.84991E+02	 5.58226E-01	 1.44146E-02	 5.58144E-01	 1.72862E-02	-4.58791E-02	 7.29300E+00	 2.17083E-01	 9.63211E-03	 2.15586E+01	 3.44037E+00	-1.04750E+00	 8.53244E-01	 2.69225E+00	 5.85862E+02	 4.93400E-01	 1.38563E-02	 4.93506E-01	 9.33463E-03	-4.45292E-02	 4.43400E+00	 2.39145E-01	 4.51499E-03	 2.64663E+01	 2.55662E+00	-1.09623E+00	 9.57322E-01
     0.424	 5.00000E+00	 0.00000E+00	 0.00000E+00	 3.25309E+00	 2.84991E+02	 5.58225E-01	 1.44146E-02	 5.58144E-01	 1.72861E-02	-4.58791E-02	 7.29300E+00	 2.17083E-01	 9.63211E-03	 2.15586E+01	 3.44037E+00	-1.04750E+00	 8.53244E-01	 2.69225E+00	 5.85862E+02	 4.93400E-01	 1.38563E-02	 4.93506E-01	 9.33463E-03	-4.45292E-02	 4.43400E+00	 2.39146E-01	 4.51499E-03	 2.64663E+01	 2.55662E+00	-1.09623E+00	 9.57322E-01
     0.428	 5.00000E+00	 0.00000E+00	 0.00000E+00	 3.25310E+00	 2.84991E+02	 5.58226E-01	 1.44146E-02	 5.58145E-01	 1.72862E-02	-4.58791E-02	 7.29300E+00	 2.17083E-01	 9.63211E-03	 2.15586E+01	 3.44037E+00	-1.04750E+00	 8.53244E-01	 2.69225E+00	 5.85861E+02	 4.93400E-01	 1.38563E-02	 4.93506E-01	 9.33464E-03	-4.45292E-02	 4.43400E+00	 2.39145E-01	 4.51499E-03	 2.64663E+01	 2.55662E+00	-1.09623E+00	 9.57322E-01
     0.432	 5.00000E+00	 0.00000E+00	 0.00000E+00	 3.25310E+00	 2.84991E+02	 5.58226E-01	 1.44146E-02	 5.58144E-01	 1.72861E-02	-4.58791E-02	 7.29300E+00	 2.17083E-01	 9.63211E-03	 2.15586E+01	 3.44037E+00	-1.04750E+00	 8.53244E-01	 2.69225E+00	 5.85862E+02	 4.93400E-01	 1.38563E-02	 4.93506E-01	 9.33462E-03	-4.45292E-02	 4.43400E+00	 2.39146E-01	 4.51499E-03	 2.64663E+01	 2.55662E+00	-1.09623E+00	 9.57323E-01
     0.436	 5.00000E+00	 0.00000E+00	 0.00000E+00	 3.25310E+00	 2.84991E+02	 5.58226E-01	 1.44146E-02	 5.58144E-01	 1.72862E-02	-4.58791E-02	 7.29300E+00	 2.17083E-01	 9.63211E-03	 2.15586E+01	 3.44037E+00	-1.04750E+00	 8.53244E-01	 2.69225E+00	 5.85862E+02	 4.93400E-01	 1.38563E-02	 4.93506E-01	 9.33464E-03	-4.45292E-02	 4.43400E+00	 2.39145E-01	 4.51499E-03	 2.64663E+01	 2.55663E+00	-1.09623E+00	 9.57322E-01
     0.440	 5.00000E+00	 0.00000E+00	 0.00000E+00	 3.25310E+00	 2.84991E+02	 5.58226E-01	 1.44146E-02	 5.58144E-01	 1.72861E-02	-4.58791E-02	 7.29300E+00	 2.17083E-01	 9.63211E-03	 2.15586E+01	 3.44037E+00	-1.04750E+00	 8.53244E-01	 2.69225E+00	 5.85862E+02	 4.93400E-01	 1.38563E-02	 4.93506E-01	 9.33462E-03	-4.45292E-02	 4.43400E+00	 2.39146E-01	 4.51499E-03	 2.64663E+01	 2.55662E+00	-1.09623E+00	 9.57322E-01
     0.444	 5.00000E+00	 0.00000E+00	 0.00000E+00	 3.25310E+00	 2.84991E+02	 5.58226E-01	 1.44146E-02	 5.58144E-01	 1.72861E-02	-4.58791E-02	 7.29300E+00	 2.17083E-01	 9.63211E-03	 2.15586E+01	 3.44037E+00	-1.04750E+00	 8.53244E-01	 2.69225E+00	 5.85861E+02	 4.93400E-01	 1.38563E-02	 4.93507E-01	 9.33465E-03	-4.45292E-02	 4.43400E+00	 2.39145E-01	 4.51499E-03	 2.64663E+01	 2.55663E+00	-1.09623E+00	 9.57322E-01
     0.448	 5.00000E+00	 0.00000E+00	 0.00000E+00	 3.25310E+00	 2.84991E+02	 5.58226E-01	 1.44146E-02	 5.58144E-01	 1.72862E-02	-4.58791E-02	 7.29300E+00	 2.17083E-01	 9.63211E-03	 2.15586E+01	 3.44037E+00	-1.04750E+00	 8.53244E-01	 2.69225E+00	 5.85861E+02	 4.93400E-01	 1.38563E-02	 4.93506E-01	 9.33463E-03	-4.45292E-02	 4.43400E+00	 2.39146E-01	 4.51499E-03	 2.64663E+01	 2.55662E+00	-1.09623E+00	 9.57322E-01
     0.452	 5.00000E+00	 0.00000E+00	 0.00000E+00	 3.25310E+00	 2.84991E+02	 5.58226E-01	 1.44146E-02	 5.58144E-01	 1.72862E-02	-4.58791E-02	 7.29300E+00	 2.17083E-01	 9.63211E-03	 2.15586E+01	 3.44037E+00	-1.04750E+00	 8.53244E-01	 2.69225E+00	 5.85861E+02	 4.93400E-01	 1.38563E-02	 4.93507E-01	 9.33466E-03	-4.45292E-02	 4.43400E+00	 2.39145E-01	 4.51499E-03	 2.64663E+01	 2.55663E+00	-1.09623E+00	 9.57322E-01
     0.456	 5.00000E+00	 0.00000E+00	 0.00000E+00	 3.25310E+00	 2.84991E+02	 5.58226E-01	 1.44146E-02	 5.58144E-01	 1.72861E-02	-4.58791E-02	 7.29300E+00	 2.17083E-01	 9.63211E-03	 2.15586E+01	 3.44037E+00	-1.04750E+00	 8.53244E-01	 2.69225E+00	 5.85862E+02	 4.93400E-01	 1.38563E-02	 4.93506E-01	 9.33462E-03	-4.45292E-02	 4.43400E+00	 2.39146E-01	 4.51499E-03	 2.64663E+01	 2.55662E+00	-1.09623E+00	 9.57322E-01
     0.460	 5.00000E+00	 0.00000E+00	 0.00000E+00	 3.25310E+00	 2.84991E+02	 5.58226E-01	 1.44146E-02	 5.58145E-01	 1.72862E-02	-4.58791E-02	 7.29300E+00	 2.17083E-01	 9.63211E-03	 2.15586E+01	 3.44037E+00	-1.04750E+00	 8.53244E-01	 2.69225E+00	 5.85861E+02	 4.93400E-01	 1.38563E-02	 4.93507E-01	 9.33465E-03	-4.45292E-02	 4.43400E+00	 2.39145E-01	 4.51499E-03	 2.64663E+01	 2.55663E+00	-1.09623E+00	 9.57322E-01
     0.464	 5.00000E+00	 0.00000E+00	 0.00000E+00	 3.25310E+00	 2.84991E+02	 5.58226E-01	 1.44146E-02	 5.58144E-01	 1.72861E-02	-4.58791E-02	 7.29300E+00	 2.17083E-01	 9.63211E-03	 2.15586E+01	 3.44037E+00	-1.04750E+00	 8.53244E-01	 2.69225E+00	 5.85861E+02	 4.93400E-01	 1.38563E-02	 4.93506E-01	 9.33464E-03	-4.45292E-02	 4.43400E+00	 2.39145E-01	 4.51499E-03	 2.64663E+01	 2.55662E+00	-1.09623E+00	 9.57322E-01
     0.468	 5.00000E+00	 0.00000E+00	 0.00000E+00	 3.25310E+00	 2.84991E+02	 5.58226E-01	 1.44146E-02	 5.58144E-01	 1.72862E-02	-4.58791E-02	 7.29300E+00	 2.17083E-01	 9.63211E-03	 2.15586E+01	 3.44037E+00	-1.04750E+00	 8.53244E-01	 2.69225E+00	 5.85862E+02	 4.93400E-01	 1.38563E-02	 4.93506E-01	 9.33464E-03	-4.45292E-02	 4.43400E+00	 2.39145E-01	 4.51499E-03	 2.64663E+01	 2.55663E+00	-1.09623E+00	 9.57322E-01
     0.472	 5.00000E+00	 0.00000E+00	 0.00000E+00	 3.25309E+00	 2.84991E+02	 5.58226E-01	 1.44146E-02	 5.58144E-01	 1.72861E-02	-4.58791E-02	 7.29300E+00	 2.17083E-01	 9.63211E-03	 2.15586E+01	 3.44037E+00	-1.04750E+00	 8.53244E-01	 2.69225E+00	 5.85861E+02	 4.93400E-01	 1.38563E-02	 4.93506E-01	 9.33463E-03	-4.45292E-02	 4.43400E+00	 2.39146E-01	 4.51499E-03	 2.64663E+01	 2.55662E+00	-1.09623E+00	 9.57322E-01
     0.476	 5.00000E+00	 0.00000E+00	 0.00000E+00	 3.25310E+00	 2.84991E+02	 5.58226E-01	 1.44146E-02	 5.58144E-01	 1.72862E-02	-4.58791E-02	 7.29300E+00	 2.17083E-01	 9.63211E-03	 2.15586E+01	 3.44037E+00	-1.04750E+00	 8.53244E-01	 2.69225E+00	 5.85862E+02	 4.93400E-01	 1.38563E-02	 4.93506E-01	 9.33463E-03	-4.45292E-02	 4.43400E+00	 2.39145E-01	 4.51499E-03	 2.64663E+01	 2.55662E+00	-1.09623E+00	 9.57322E-01
     0.480	 5.00000E+00	 0.00000E+00	 0.00000E+00	 3.25310E+00	 2.84991E+02	 5.58226E-01	 1.44146E-02	 5.58144E-01	 1.72862E-02	-4.58791E-02	 7.29300E+00	 2.17083E-01	 9.63211E-03	 2.15586E+01	 3.44037E+00	-1.04750E+00	 8.53244E-01	 2.69225E+00	 5.85861E+02	 4.93400E-01	 1.38563E-02	 4.93506E-01	 9.33462E-03	-4.45292E-02	 4.43400E+00	 2.39146E-01	 4.51499E-03	 2.64663E+01	 2.55662E+00	-1.09623E+00	 9.57322E-01
     0.484	 5.00000E+00	 0.00000E+00	 0.00000E+00	 3.25310E+00	 2.84991E+02	 5.58226E-01	 1.44146E-02	 5.58144E-01	 1.72862E-02	-4.58791E-02	 7.29300E+00	 2.17083E-01	 9.63211E-03	 2.15586E+01	 3.44037E+00	-1.04750E+00	 8.53244E-01	 2.69225E+00	 5.85861E+02	 4.93400E-01	 1.38563E-02	 4.93507E-01	 9.33465E-03	-4.45292E-02	 4.43400E+00	 2.39145E-01	 4.51499E-03	 2.64663E+01	 2.55663E+00	-1.09623E+00	 9.57322E-01
     0.488	 5.00000E+00	 0.00000E+00	 0.00000E+00	 3.25310E+00	 2.84991E+02	 5.58226E-01	 1.44146E-02	 5.58144E-01	 1.72861E-02	-4.58791E-02	 7.29300E+00	 2.17083E-01	 9.63211E-03	 2.15586E+01	 3.44037E+00	-1.04750E+00	 8.53244E-01	 2.69225E+00	 5.85861E+02	 4.93400E-01	 1.38563E-02	 4.93506E-01	 9.33462E-03	-4.45292E-02	 4.43400E+00	 2.39146E-01	 4.51499E-03	 2.64663E+01	 2.55662E+00	-1.09623E+00	 9.57322E-01
     0.492	 5.00000E+00	 0.00000E+00	 0.00000E+00	 3.25310E+00	 2.84991E+02	 5.58226E-01	 1.44146E-02	 5.58144E-01	 1.72862E-02	-4.58791E-02	 7.29300E+00	 2.17083E-01	 9.63211E-03	 2.15586E+01	 3.44037E+00	-1.04750E+00	 8.53244E-01	 2.69225E+00	 5.85862E+02	 4.93400E-01	 1.38563E-02	 4.93506E-01	 9.33464E-03	-4.45292E-02	 4.43400E+00	 2.39145E-01	 4.51499E-03	 2.64663E+01	 2.55663E+00	-1.09623E+00	 9.57322E-01
     0.496	 5.00000E+00	 0.00000E+00	 0.00000E+00	 3.25310E+00	 2.84991E+02	 5.58226E-01	 1.44146E-02	 5.58144E-01	 1.72861E-02	-4.58791E-02	 7.29300E+00	 2.17083E-01	 9.63211E-03	 2.15586E+01	 3.44037E+00	-1.04750E+00	 8.53244E-01	 2.69225E+00	 5.85861E+02	 4.93400E-01	 1.38563E-02	 4.93506E-01	 9.33462E-03	-4.45292E-02	 4.43400E+00	 2.39146E-01	 4.51499E-03	 2.64663E+01	 2.55662E+00	-1.09623E+00	 9.57322E-01
     0.500	 5.00000E+00	 0.00000E+00	 0.00000E+00	 3.25310E+00	 2.84991E+02	 5.58226E-01	 1.44146E-02	 5.58144E-01	 1.72862E-02	-4.58791E-02	 7.29300E+00	 2.17083E-01	 9.63211E-03	 2.15586E+01	 3.44037E+00	-1.04750E+00	 8.53244E-01	 2.69225E+00	 5.85861E+02	 4.93401E-01	 1.38563E-02	 4.93507E-01	 9.33467E-03	-4.45292E-02	 4.43400E+00	 2.39145E-01	 4.51499E-03	 2.64663E+01	 2.55663E+00	-1.09623E+00	 9.57322E-01
     0.504	 5.00000E+00	 0.00000E+00	 0.00000E+00	 3.25309E+00	 2.84991E+02	 5.58226E-01	 1.44146E-02	 5.58144E-01	 1.72861E-02	-4.58791E-02	 7.29300E+00	 2.17083E-01	 9.63211E-03	 2.15586E+01	 3.44037E+00	-1.04750E+00	 8.53244E-01	 2.69225E+00	 5.85862E+02	 4.93400E-01	 1.38563E-02	 4.93506E-01	 9.33461E-03	-4.45292E-02	 4.43400E+00	 2.39146E-01	 4.51499E-03	 2.64663E+01	 2.55662E+00	-1.09623E+00	 9.57322E-01
     0.508	 5.00000E+00	 0.00000E+00	 0.00000E+00	 3.25310E+00	 2.84991E+02	 5.58226E-01	 1.44146E-02	 5.58144E-01	 1.72862E-02	-4.58791E-02	 7.29300E+00	 2.17083E-01	 9.63211E-03	 2.15586E+01	 3.44037E+00	-1.04750E+00	 8.53244E-01	 2.69225E+00	 5.85861E+02	 4.93400E-01	 1.38563E-02	 4.93507E-01	 9.33466E-03	-4.45292E-02	 4.43400E+00	 2.39145E-01	 4.51499E-03	 2.64663E+01	 2.55663E+00	-1.09623E+00	 9.57322E-01
     0.512	 5.00000E+00	 0.00000E+00	 0.00000E+00	 3.25310E+00	 2.84991E+02	 5.58226E-01	 1.44146E-02	 5.58144E-01	 1.72862E-02	-4.58791E-02	 7.29300E+00	 2.17083E-01	 9.63211E-03	 2.15586E+01	 3.44037E+00	-1.04750E+00	 8.53244E-01	 2.69225E+00	 5.85861E+02	 4.93400E-01	 1.38563E-02	 4.93506E-01	 9.33463E-03	-4.45292E-02	 4.43400E+00	 2.39146E-01	 4.51499E-03	 2.64663E+01	 2.55662E+00	-1.09623E+00	 9.57322E-01
     0.516	 5.00000E+00	 0.00000E+00	 0.00000E+00	 3.25310E+00	 2.84991E+02	 5.58226E-01	 1.44146E-02	 5.58144E-01	 1.72862E-02	-4.58791E-02	 7.29300E+00	 2.17083E-01	 9.63211E-03	 2.15586E+01	 3.44037E+00	-1.04750E+00	 8.53244E-01	 2.69225E+00	 5.85862E+02	 4.93400E-01	 1.38563E-02	 4.93506E-01	 9.33464E-03	-4.45292E-02	 4.43400E+00	 2.39145E-01	 4.51499E-03	 2.64663E+01	 2.55663E+00	-1.09623E+00	 9.57322E-01
     0.520	 5.00000E+00	 0.00000E+00	 0.00000E+00	 3.25310E+00	 2.84991E+02	 5.58226E-01	 1.44146E-02	 5.58144E-01	 1.72861E-02	-4.58791E-02	 7.29300E+00	 2.17083E-01	 9.63211E-03	 2.15586E+01	 3.44037E+00	-1.04750E+00	 8.53244E-01	 2.69225E+00	 5.85861E+02	 4.93400E-01	 1.38563E-02	 4.93506E-01	 9.33463E-03	-4.45292E-02	 4.43400E+00	 2.39146E-01	 4.51499E-03	 2.64663E+01	 2.55662E+00	-1.09623E+00	 9.57322E-01
     0.524	 5.00000E+00	 0.00000E+00	 0.00000E+00	 3.25310E+00	 2.84991E+02	 5.58226E-01	 1.44146E-02	 5.58144E-01	 1.72862E-02	-4.58791E-02	 7.29300E+00	 2.17083E-01	 9.63211E-03	 2.15586E+01	 3.44037E+00	-1.04750E+00	 8.53244E-01	 2.69225E+00	 5.85861E+02	 4.93400E-01	 1.38563E-02	 4.93507E-01	 9.33465E-03	-4.45292E-02	 4.43400E+00	 2.39145E-01	 4.51499E-03	 2.64663E+01	 2.55663E+00	-1.09623E+00	 9.57322E-01
     0.528	 5.00000E+00	 0.00000E+00	 0.00000E+00	 3.25310E+00	 2.84991E+02	 5.58226E-01	 1.44146E-02	 5.58144E-01	 1.72861E-02	-4.58791E-02	 7.29300E+00	 2.17083E-01	 9.63211E-03	 2.15586E+01	 3.44037E+00	-1.04750E+00	 8.53244E-01	 2.69225E+00	 5.85862E+02	 4.93400E-01	 1.38563E-02	 4.93506E-01	 9.33462E-03	-4.45292E-02	 4.43400E+00	 2.39146E-01	 4.51499E-03	 2.64663E+01	 2.55662E+00	-1.09623E+00	 9.57322E-01
     0.532	 5.00000E+00	 0.00000E+00	 0.00000E+00	 3.25310E+00	 2.84991E+02	 5.58226E-01	 1.44146E-02	 5.58145E-01	 1.72862E-02	-4.58791E-02	 7.29300E+00	 2.17083E-01	 9.63211E-03	 2.15586E+01	 3.44037E+00	-1.04750E+00	 8.53244E-01	 2.69225E+00	 5.85861E+02	 4.93400E-01	 1.38563E-02	 4.93507E-01	 9.33465E-03	-4.45292E-02	 4.43400E+00	 2.39145E-01	 4.51499E-03	 2.64663E+01	 2.55663E+00	-1.09623E+00	 9.57322E-01
     0.536	 5.00000E+00	 0.00000E+00	 0.00000E+00	 3.25310E+00	 2.84991E+02	 5.58226E-01	 1.44146E-02	 5.58144E-01	 1.72862E-02	-4.58791E-02	 7.29300E+00	 2.17083E-01	 9.63211E-03	 2.15586E+01	 3.44037E+00	-1.04750E+00	 8.53244E-01	 2.69225E+00	 5.85862E+02	 4.93400E-01	 1.38563E-02	 4.93506E-01	 9.33462E-03	-4.45292E-02	 4.43400E+00	 2.39146E-01	 4.51499E-03	 2.64663E+01	 2.55662E+00	-1.09623E+00	 9.57322E-01
     0.540	 5.00000E+00	 0.00000E+00	 0.00000E+00	 3.25310E+00	 2.84991E+02	 5.58226E-01	 1.44146E-02	 5.58145E-01	 1.72862E-02	-4.58791E-02	 7.29300E+00	 2.17083E-01	 9.63211E-03	 2.15586E+01	 3.44037E+00	-1.04750E+00	 8.53244E-01	 2.69225E+00	 5.85861E+02	 4.93400E-01	 1.38563E-02	 4.93507E-01	 9.33465E-03	-4.45292E-02	 4.43400E+00	 2.39145E-01	 4.51499E-03	 2.64663E+01	 2.55663E+00	-1.09623E+00	 9.57322E-01
     0.544	 5.00000E+00	 0.00000E+00	 0.00000E+00	 3.25310E+00	 2.84991E+02	 5.58226E-01	 1.44146E-02	 5.58144E-01	 1.72862E-02	-4.58791E-02	 7.29300E+00	 2.17083E-01	 9.63211E-03	 2.15586E+01	 3.44037E+00	-1.04750E+00	 8.53244E-01	 2.69225E+00	 5.85861E+02	 4.93400E-01	 1.38563E-02	 4.93506E-01	 9.33463E-03	-4.45292E-02	 4.43400E+00	 2.39146E-01	 4.51499E-03	 2.64663E+01	 2.55662E+00	-1.09623E+00	 9.57322E-01
     0.548	 5.00000E+00	 0.00000E+00	 0.00000E+00	 3.25310E+00	 2.84991E+02	 5.58226E-01	 1.44146E-02	 5.58145E-01	 1.72862E-02	-4.58791E-02	 7.29300E+00	 2.17083E-01	 9.63211E-03	 2.15586E+01	 3.44037E+00	-1.04750E+00	 8.53244E-01	 2.69225E+00	 5.85861E+02	 4.93400E-01	 1.38563E-02	 4.93507E-01	 9.33465E-03	-4.45292E-02	 4.43400E+00	 2.39145E-01	 4.51499E-03	 2.64663E+01	 2.55663E+00	-1.09623E+00	 9.57322E-01
     0.552	 5.00000E+00	 0.00000E+00	 0.00000E+00	 3.25310E+00	 2.84991E+02	 5.58226E-01	 1.44146E-02	 5.58144E-01	 1.72862E-02	-4.58791E-02	 7.29300E+00	 2.17083E-01	 9.63211E-03	 2.15586E+01	 3.44037E+00	-1.04750E+00	 8.53244E-01	 2.69225E+00	 5.85862E+02	 4.93400E-01	 1.38563E-02	 4.93506E-01	 9.33462E-03	-4.45292E-02	 4.43400E+00	 2.39146E-01	 4.51499E-03	 2.64663E+01	 2.55662E+00	-1.09623E+00	 9.57322E-01
     0.556	 5.00000E+00	 0.00000E+00	 0.00000E+00	 3.25310E+00	 2.84991E+02	 5.58226E-01	 1.44146E-02	 5.58144E-01	 1.72861E-02	-4.58791E-02	 7.29300E+00	 2.17083E-01	 9.63211E-03	 2.15586E+01	 3.44037E+00	-1.04750E+00	 8.53244E-01	 2.69225E+00	 5.85861E+02	 4.93400E-01	 1.38563E-02	 4.93507E-01	 9.33466E-03	-4.45292E-02	 4.43400E+00	 2.39145E-01	 4.51499E-03	 2.64663E+01	 2.55663E+00	-1.09623E+00	 9.57322E-01
     0.560	 5.00000E+00	 0.00000E+00	 0.00000E+00	 3.25310E+00	 2.84991E+02	 5.58226E-01	 1.44146E-02	 5.58144E-01	 1.72862E-02	-4.58791E-02	 7.29300E+00	 2.17083E-01	 9.63211E-03	 2.15586E+01	 3.44037E+00	-1.04750E+00	 8.53244E-01	 2.69225E+00	 5.85861E+02	 4.93400E-01	 1.38563E-02	 4.93506E-01	 9.33462E-03	-4.45292E-02	 4.43400E+00	 2.39146E-01	 4.51499E-03	 2.64663E+01	 2.55662E+00	-1.09623E+00	 9.57322E-01
     0.564	 5.00000E+00	 0.00000E+00	 0.00000E+00	 3.25309E+00	 2.84991E+02	 5.58226E-01	 1.44146E-02	 5.58144E-01	 1.72861E-02	-4.58791E-02	 7.29300E+00	 2.17083E-01	 9.63211E-03	 2.15586E+01	 3.44037E+00	-1.04750E+00	 8.53244E-01	 2.69225E+00	 5.85861E+02	 4.93400E-01	 1.38563E-02	 4.93507E-01	 9.33465E-03	-4.45292E-02	 4.43400E+00	 2.39145E-01	 4.51499E-03	 2.64663E+01	 2.55663E+00	-1.09623E+00	 9.57322E-01
     0.568	 5.00000E+00	 0.00000E+00	 0.00000E+00	 3.25310E+00	 2.84991E+02	 5.58226E-01	 1.44146E-02	 5.58145E-01	 1.72862E-02	-4.58791E-02	 7.29300E+00	 2.17083E-01	 9.63211E-03	 2.15586E+01	 3.44037E+00	-1.04750E+00	 8.53244E-01	 2.69225E+00	 5.85861E+02	 4.93400E-01	 1.38563E-02	 4.93506E-01	 9.33462E-03	-4.45292E-02	 4.43400E+00	 2.39146E-01	 4.51499E-03	 2.64663E+01	 2.55662E+00	-1.09623E+00	 9.57322E-01
     0.572	 5.00000E+00	 0.00000E+00	 0.00000E+00	 3.25310E+00	 2.84991E+02	 5.58226E-01	 1.44146E-02	 5.58144E-01	 1.72861E-02	-4.58791E-02	 7.29300E+00	 2.17083E-01	 9.63211E-03	 2.15586E+01	 3.44037E+00	-1.04750E+00	 8.53244E-01	 2.69225E+00	 5.85861E+02	 4.93400E-01	 1.38563E-02	 4.93507E-01	 9.33465E-03	-4.45292E-02	 4.43400E+00	 2.39145E-01	 4.51499E-03	 2.64663E+01	 2.55663E+00	-1.09623E+00	 9.57322E-01
     0.576	 5.00000E+00	 0.00000E+00	 0.00000E+00	 3.25310E+00	 2.84991E+02	 5.58226E-01	 1.44146E-02	 5.58145E-01	 1.72862E-02	-4.58791E-02	 7.29300E+00	 2.17083E-01	 9.63211E-03	 2.15586E+01	 3.44037E+00	-1.04750E+00	 8.53244E-01	 2.69225E+00	 5.85862E+02	 4.93400E-01	 1.38563E-02	 4.93506E-01	 9.33461E-03	-4.45292E-02	 4.43400E+00	 2.39146E-01	 4.51499E-03	 2.64663E+01	 2.55662E+00	-1.09623E+00	 9.57323E-01
     0.580	 5.00000E+00	 0.00000E+00	 0.00000E+00	 3.25310E+00	 2.84991E+02	 5.58226E-01	 1.44146E-02	 5.58144E-01	 1.72861E-02	-4.58791E-02	 7.29300E+00	 2.17083E-01	 9.63211E-03	 2.15586E+01	 3.44037E+00	-1.04750E+00	 8.53244E-01	 2.69225E+00	 5.85861E+02	 4.93400E-01	 1.38563E-02	 4.93507E-01	 9.33465E-03	-4.45292E-02	 4.43400E+00	 2.39145E-01	 4.51499E-03	 2.64663E+01	 2.55663E+00	-1.09623E+00	 9.57322E-01
     0.584	 5.00000E+00	 0.00000E+00	 0.00000E+00	 3.25310E+00	 2.84991E+02	 5.58226E-01	 1.44146E-02	 5.58144E-01	 1.72862E-02	-4.58791E-02	 7.29300E+00	 2.17083E-01	 9.63211E-03	 2.15586E+01	 3.44037E+00	-1.04750E+00	 8.53244E-01	 2.69225E+00	 5.85862E+02	 4.93400E-01	 1.38563E-02	 4.93506E-01	 9.33463E-03	-4.45292E-02	 4.43400E+00	 2.39145E-01	 4.51499E-03	 2.64663E+01	 2.55662E+00	-1.09623E+00	 9.57322E-01
     0.588	 5.00000E+00	 0.00000E+00	 0.00000E+00	 3.25310E+00	 2.84991E+02	 5.58226E-01	 1.44146E-02	 5.58144E-01	 1.72861E-02	-4.58791E-02	 7.29300E+00	 2.17083E-01	 9.63211E-03	 2.15586E+01	 3.44037E+00	-1.04750E+00	 8.53244E-01	 2.69225E+00	 5.85861E+02	 4.93400E-01	 1.38563E-02	 4.93506E-01	 9.33463E-03	-4.45292E-02	 4.43400E+00	 2.39146E-01	 4.51499E-03	 2.64663E+01	 2.55662E+00	-1.09623E+00	 9.57322E-01
     0.592	 5.00000E+00	 0.00000E+00	 0.00000E+00	 3.25310E+00	 2.84991E+02	 5.58226E-01	 1.44146E-02	 5.58144E-01	 1.72862E-02	-4.58791E-02	 7.29300E+00	 2.17083E-01	 9.63211E-03	 2.15586E+01	 3.44037E+00	-1.04750E+00	 8.53244E-01	 2.69225E+00	 5.85862E+02	 4.93400E-01	 1.38563E-02	 4.93506E-01	 9.33464E-03	-4.45292E-02	 4.43400E+00	 2.39145E-01	 4.51499E-03	 2.64663E+01	 2.55663E+00	-1.09623E+00	 9.57323E-01
     0.596	 5.00000E+00	 0.00000E+00	 0.00000E+00	 3.25310E+00	 2.84991E+02	 5.58226E-01	 1.44146E-02	 5.58144E-01	 1.72861E-02	-4.58791E-02	 7.29300E+00	 2.17083E-01	 9.63211E-03	 2.15586E+01	 3.44037E+00	-1.04750E+00	 8.53244E-01	 2.69225E+00	 5.85861E+02	 4.93400E-01	 1.38563E-02	 4.93506E-01	 9.33463E-03	-4.45292E-02	 4.43400E+00	 2.39146E-01	 4.51499E-03	 2.64663E+01	 2.55662E+00	-1.09623E+00	 9.57322E-01
     0.600	 5.00000E+00	 0.00000E+00	 0.00000E+00	 3.25310E+00	 2.84991E+02	 5.58226E-01	 1.44146E-02	 5.58144E-01	 1.72862E-02	-4.58791E-02	 7.29300E+00	 2.17083E-01	 9.63211E-03	 2.15586E+01	 3.44037E+00	-1.04750E+00	 8.53244E-01	 2.69225E+00	 5.85861E+02	 4.93400E-01	 1.38563E-02	 4.93507E-01	 9.33466E-03	-4.45292E-02	 4.43400E+00	 2.39145E-01	 4.51499E-03	 2.64663E+01	 2.55663E+00	-1.09623E+00	 9.57322E-01
     0.604	 5.00000E+00	 0.00000E+00	 0.00000E+00	 3.25310E+00	 2.84991E+02	 5.58226E-01	 1.44146E-02	 5.58144E-01	 1.72861E-02	-4.58791E-02	 7.29300E+00	 2.17083E-01	 9.63211E-03	 2.15586E+01	 3.44037E+00	-1.04750E+00	 8.53244E-01	 2.69225E+00	 5.85861E+02	 4.93400E-01	 1.38563E-02	 4.93506E-01	 9.33462E-03	-4.45292E-02	 4.43400E+00	 2.39146E-01	 4.51499E-03	 2.64663E+01	 2.55662E+00	-1.09623E+00	 9.57322E-01
     0.608	 5.00000E+00	 0.00000E+00	 0.00000E+00	 3.25310E+00	 2.84991E+02	 5.58226E-01	 1.44146E-02	 5.58145E-01	 1.72862E-02	-4.58791E-02	 7.29300E+00	 2.17083E-01	 9.63211E-03	 2.15586E+01	 3.44037E+00	-1.04750E+00	 8.53244E-01	 2.69225E+00	 5.85862E+02	 4.93400E-01	 1.38563E-02	 4.93506E-01	 9.33464E-03	-4.45292E-02	 4.43400E+00	 2.39145E-01	 4.51499E-03	 2.64663E+01	 2.55663E+00	-1.09623E+00	 9.57322E-01
     0.612	 5.00000E+00	 0.00000E+00	 0.00000E+00	 3.25310E+00	 2.84991E+02	 5.58226E-01	 1.44146E-02	 5.58144E-01	 1.72861E-02	-4.58791E-02	 7.29300E+00	 2.17083E-01	 9.63211E-03	 2.15586E+01	 3.44037E+00	-1.04750E+00	 8.53244E-01	 2.69225E+00	 5.85861E+02	 4.93400E-01	 1.38563E-02	 4.93506E-01	 9.33463E-03	-4.45292E-02	 4.43400E+00	 2.39146E-01	 4.51499E-03	 2.64663E+01	 2.55662E+00	-1.09623E+00	 9.57322E-01
     0.616	 5.00000E+00	 0.00000E+00	 0.00000E+00	 3.25310E+00	 2.84991E+02	 5.58226E-01	 1.44146E-02	 5.58144E-01	 1.72862E-02	-4.58791E-02	 7.29300E+00	 2.17083E-01	 9.63211E-03	 2.15586E+01	 3.44037E+00	-1.04750E+00	 8.53244E-01	 2.69225E+00	 5.85861E+02	 4.93400E-01	 1.38563E-02	 4.93507E-01	 9.33465E-03	-4.45292E-02	 4.43400E+00	 2.39145E-01	 4.51499E-03	 2.64663E+01	 2.55663E+00	-1.09623E+00	 9.57322E-01
     0.620	 5.00000E+00	 0.00000E+00	 0.00000E+00	 3.25310E+00	 2.84991E+02	 5.58226E-01	 1.44146E-02	 5.58144E-01	 1.72861E-02	-4.58791E-02	 7.29300E+00	 2.17083E-01	 9.63211E-03	 2.15586E+01	 3.44037E+00	-1.04750E+00	 8.53244E-01	 2.69225E+00	 5.85861E+02	 4.93400E-01	 1.38563E-02	 4.93506E-01	 9.33463E-03	-4.45292E-02	 4.43400E+00	 2.39146E-01	 4.51499E-03	 2.64663E+01	 2.55662E+00	-1.09623E+00	 9.57322E-01
     0.624	 5.00000E+00	 0.00000E+00	 0.00000E+00	 3.25310E+00	 2.84991E+02	 5.58226E-01	 1.44146E-02	 5.58145E-01	 1.72862E-02	-4.58791E-02	 7.29300E+00	 2.17083E-01	 9.63211E-03	 2.15586E+01	 3.44037E+00	-1.04750E+00	 8.53244E-01	 2.69225E+00	 5.85862E+02	 4.93400E-01	 1.38563E-02	 4.93506E-01	 9.33464E-03	-4.45292E-02	 4.43400E+00	 2.39145E-01	 4.51499E-03	 2.64663E+01	 2.55663E+00	-1.09623E+00	 9.57322E-01
     0.628	 5.00000E+00	 0.00000E+00	 0.00000E+00	 3.25310E+00	 2.84991E+02	 5.58226E-01	 1.44146E-02	 5.58144E-01	 1.72861E-02	-4.58791E-02	 7.29300E+00	 2.17083E-01	 9.63211E-03	 2.15586E+01	 3.44037E+00	-1.04750E+00	 8.53244E-01	 2.69225E+00	 5.85861E+02	 4.93400E-01	 1.38563E-02	 4.93506E-01	 9.33462E-03	-4.45292E-02	 4.43400E+00	 2.39146E-01	 4.51499E-03	 2.64663E+01	 2.55662E+00	-1.09623E+00	 9.57322E-01
     0.632	 5.00000E+00	 0.00000E+00	 0.00000E+00	 3.25310E+00	 2.84991E+02	 5.58226E-01	 1.44146E-02	 5.58144E-01	 1.72862E-02	-4.58791E-02	 7.29300E+00	 2.17083E-01	 9.63211E-03	 2.15586E+01	 3.44037E+00	-1.04750E+00	 8.53244E-01	 2.69225E+00	 5.85861E+02	 4.93400E-01	 1.38563E-02	 4.93507E-01	 9.33465E-03	-4.45292E-02	 4.43400E+00	 2.39145E-01	 4.51499E-03	 2.64663E+01	 2.55663E+00	-1.09623E+00	 9.57322E-01
     0.636	 5.00000E+00	 0.00000E+00	 0.00000E+00	 3.25309E+00	 2.84991E+02	 5.58226E-01	 1.44146E-02	 5.58144E-01	 1.72861E-02	-4.58791E-02	 7.29300E+00	 2.17083E-01	 9.63211E-03	 2.15586E+01	 3.44037E+00	-1.04750E+00	 8.53244E-01	 2.69225E+00	 5.85862E+02	 4.93400E-01	 1.38563E-02	 4.93506E-01	 9.33462E-03	-4.45292E-02	 4.43400E+00	 2.39146E-01	 4.51499E-03	 2.64663E+01	 2.55662E+00	-1.09623E+00	 9.57323E-01
     0.640	 5.00000E+00	 0.00000E+00	 0.00000E+00	 3.25310E+00	 2.84991E+02	 5.58226E-01	 1.44146E-02	 5.58144E-01	 1.72862E-02	-4.58791E-02	 7.29300E+00	 2.17083E-01	 9.63211E-03	 2.15586E+01	 3.44037E+00	-1.04750E+00	 8.53244E-01	 2.69225E+00	 5.85861E+02	 4.93400E-01	 1.38563E-02	 4.93507E-01	 9.33465E-03	-4.45292E-02	 4.43400E+00	 2.39145E-01	 4.51499E-03	 2.64663E+01	 2.55663E+00	-1.09623E+00	 9.57322E-01
     0.644	 5.00000E+00	 0.00000E+00	 0.00000E+00	 3.25310E+00	 2.84991E+02	 5.58226E-01	 1.44146E-02	 5.58144E-01	 1.72862E-02	-4.58791E-02	 7.29300E+00	 2.17083E-01	 9.63211E-03	 2.15586E+01	 3.44037E+00	-1.04750E+00	 8.53244E-01	 2.69225E+00	 5.85862E+02	 4.93400E-01	 1.38563E-02	 4.93506E-01	 9.33463E-03	-4.45292E-02	 4.43400E+00	 2.39146E-01	 4.51499E-03	 2.64663E+01	 2.55662E+00	-1.09623E+00	 9.57322E-01
     0.648	 5.00000E+00	 0.00000E+00	 0.00000E+00	 3.25310E+00	 2.84991E+02	 5.58226E-01	 1.44146E-02	 5.58144E-01	 1.72862E-02	-4.58791E-02	 7.29300E+00	 2.17083E-01	 9.63211E-03	 2.15586E+01	 3.44037E+00	-1.04750E+00	 8.53244E-01	 2.69225E+00	 5.85861E+02	 4.93400E-01	 1.38563E-02	 4.93507E-01	 9.33465E-03	-4.45292E-02	 4.43400E+00	 2.39145E-01	 4.51499E-03	 2.64663E+01	 2.55663E+00	-1.09623E+00	 9.57322E-01
     0.652	 5.00000E+00	 0.00000E+00	 0.00000E+00	 3.25310E+00	 2.84991E+02	 5.58226E-01	 1.44146E-02	 5.58144E-01	 1.72861E-02	-4.58791E-02	 7.29300E+00	 2.17083E-01	 9.63211E-03	 2.15586E+01	 3.44037E+00	-1.04750E+00	 8.53244E-01	 2.69225E+00	 5.85861E+02	 4.93400E-01	 1.38563E-02	 4.93506E-01	 9.33462E-03	-4.45292E-02	 4.43400E+00	 2.39146E-01	 4.51499E-03	 2.64663E+01	 2.55662E+00	-1.09623E+00	 9.57322E-01
     0.656	 5.00000E+00	 0.00000E+00	 0.00000E+00	 3.25310E+00	 2.84991E+02	 5.58226E-01	 1.44146E-02	 5.58144E-01	 1.72862E-02	-4.58791E-02	 7.29300E+00	 2.17083E-01	 9.63211E-03	 2.15586E+01	 3.44037E+00	-1.04750E+00	 8.53244E-01	 2.69225E+00	 5.85861E+02	 4.93400E-01	 1.38563E-02	 4.93507E-01	 9.33466E-03	-4.45292E-02	 4.43400E+00	 2.39145E-01	 4.51499E-03	 2.64663E+01	 2.55663E+00	-1.09623E+00	 9.57322E-01
     0.660	 5.00000E+00	 0.00000E+00	 0.00000E+00	 3.25310E+00	 2.84991E+02	 5.58226E-01	 1.44146E-02	 5.58144E-01	 1.72861E-02	-4.58791E-02	 7.29300E+00	 2.17083E-01	 9.63211E-03	 2.15586E+01	 3.44037E+00	-1.04750E+00	 8.53244E-01	 2.69225E+00	 5.85861E+02	 4.93400E-01	 1.38563E-02	 4.93506E-01	 9.33462E-03	-4.45292E-02	 4.43400E+00	 2.39146E-01	 4.51499E-03	 2.64663E+01	 2.55662E+00	-1.09623E+00	 9.57322E-01
     0.664	 5.00000E+00	 0.00000E+00	 0.00000E+00	 3.25310E+00	 2.84991E+02	 5.58226E-01	 1.44146E-02	 5.58145E-01	 1.72862E-02	-4.58791E-02	 7.29300E+00	 2.17083E-01	 9.63211E-03	 2.15586E+01	 3.44037E+00	-1.04750E+00	 8.53244E-01	 2.69225E+00	 5.85862E+02	 4.93400E-01	 1.38563E-02	 4.93507E-01	 9.33465E-03	-4.45292E-02	 4.43400E+00	 2.39145E-01	 4.51499E-03	 2.64663E+01	 2.55663E+00	-1.09623E+00	 9.57322E-01
     0.668	 5.00000E+00	 0.00000E+00	 0.00000E+00	 3.25310E+00	 2.84991E+02	 5.58226E-01	 1.44146E-02	 5.58144E-01	 1.72861E-02	-4.58791E-02	 7.29300E+00	 2.17083E-01	 9.63211E-03	 2.15586E+01	 3.44037E+00	-1.04750E+00	 8.53244E-01	 2.69225E+00	 5.85861E+02	 4.93400E-01	 1.38563E-02	 4.93506E-01	 9.33464E-03	-4.45292E-02	 4.43400E+00	 2.39146E-01	 4.51499E-03	 2.64663E+01	 2.55662E+00	-1.09623E+00	 9.57322E-01
     0.672	 5.00000E+00	 0.00000E+00	 0.00000E+00	 3.25310E+00	 2.84991E+02	 5.58226E-01	 1.44146E-02	 5.58144E-01	 1.72862E-02	-4.58791E-02	 7.29300E+00	 2.17083E-01	 9.63211E-03	 2.15586E+01	 3.44037E+00	-1.04750E+00	 8.53244E-01	 2.69225E+00	 5.85861E+02	 4.93400E-01	 1.38563E-02	 4.93507E-01	 9.33466E-03	-4.45292E-02	 4.43400E+00	 2.39145E-01	 4.51499E-03	 2.64663E+01	 2.55663E+00	-1.09623E+00	 9.57322E-01
     0.676	 5.00000E+00	 0.00000E+00	 0.00000E+00	 3.25309E+00	 2.84991E+02	 5.58226E-01	 1.44146E-02	 5.58144E-01	 1.72861E-02	-4.58791E-02	 7.29300E+00	 2.17083E-01	 9.63211E-03	 2.15586E+01	 3.44037E+00	-1.04750E+00	 8.53244E-01	 2.69225E+00	 5.85862E+02	 4.93400E-01	 1.38563E-02	 4.93506E-01	 9.33462E-03	-4.45292E-02	 4.43400E+00	 2.39146E-01	 4.51499E-03	 2.64663E+01	 2.55662E+00	-1.09623E+00	 9.57322E-01
     0.680	 5.00000E+00	 0.00000E+00	 0.00000E+00	 3.25310E+00	 2.84991E+02	 5.58226E-01	 1.44146E-02	 5.58144E-01	 1.72862E-02	-4.58791E-02	 7.29300E+00	 2.17083E-01	 9.63211E-03	 2.15586E+01	 3.44037E+00	-1.04750E+00	 8.53244E-01	 2.69225E+00	 5.85861E+02	 4.93400E-01	 1.38563E-02	 4.93507E-01	 9.33466E-03	-4.45292E-02	 4.43400E+00	 2.39145E-01	 4.51499E-03	 2.64663E+01	 2.55663E+00	-1.09623E+00	 9.57322E-01
     0.684	 5.00000E+00	 0.00000E+00	 0.00000E+00	 3.25310E+00	 2.84991E+02	 5.58226E-01	 1.44146E-02	 5.58144E-01	 1.72861E-02	-4.58791E-02	 7.29300E+00	 2.17083E-01	 9.63211E-03	 2.15586E+01	 3.44037E+00	-1.04750E+00	 8.53244E-01	 2.69225E+00	 5.85862E+02	 4.93400E-01	 1.38563E-02	 4.93506E-01	 9.33461E-03	-4.45292E-02	 4.43400E+00	 2.39146E-01	 4.51499E-03	 2.64663E+01	 2.55662E+00	-1.09623E+00	 9.57322E-01
     0.688	 5.00000E+00	 0.00000E+00	 0.00000E+00	 3.25310E+00	 2.84991E+02	 5.58226E-01	 1.44146E-02	 5.58144E-01	 1.72862E-02	-4.58791E-02	 7.29300E+00	 2.17083E-01	 9.63211E-03	 2.15586E+01	 3.44037E+00	-1.04750E+00	 8.53244E-01	 2.69225E+00	 5.85861E+02	 4.93400E-01	 1.38563E-02	 4.93507E-01	 9.33465E-03	-4.45292E-02	 4.43400E+00	 2.39145E-01	 4.51499E-03	 2.64663E+01	 2.55663E+00	-1.09623E+00	 9.57322E-01
     0.692	 5.00000E+00	 0.00000E+00	 0.00000E+00	 3.25310E+00	 2.84991E+02	 5.58226E-01	 1.44146E-02	 5.58144E-01	 1.72861E-02	-4.58791E-02	 7.29300E+00	 2.17083E-01	 9.63211E-03	 2.15586E+01	 3.44037E+00	-1.04750E+00	 8.53244E-01	 2.69225E+00	 5.85861E+02	 4.93400E-01	 1.38563E-02	 4.93506E-01	 9.33463E-03	-4.45292E-02	 4.43400E+00	 2.39146E-01	 4.51499E-03	 2.64663E+01	 2.55662E+00	-1.09623E+00	 9.57322E-01
     0.696	 5.00000E+00	 0.00000E+00	 0.00000E+00	 3.25310E+00	 2.84991E+02	 5.58226E-01	 1.44146E-02	 5.58144E-01	 1.72862E-02	-4.58791E-02	 7.29300E+00	 2.17083E-01	 9.63211E-03	 2.15586E+01	 3.44037E+00	-1.04750E+00	 8.53244E-01	 2.69225E+00	 5.85862E+02	 4.93400E-01	 1.38563E-02	 4.93506E-01	 9.33464E-03	-4.45292E-02	 4.43400E+00	 2.39145E-01	 4.51499E-03	 2.64663E+01	 2.55663E+00	-1.09623E+00	 9.57322E-01
     0.700	 5.00000E+00	 0.00000E+00	 0.00000E+00	 3.25310E+00	 2.84991E+02	 5.58226E-01	 1.44146E-02	 5.58144E-01	 1.72861E-02	-4.58791E-02	 7.29300E+00	 2.17083E-01	 9.63211E-03	 2.15586E+01	 3.44037E+00	-1.04750E+00	 8.53244E-01	 2.69225E+00	 5.85862E+02	 4.93400E-01	 1.38563E-02	 4.93506E-01	 9.33463E-03	-4.45292E-02	 4.43400E+00	 2.39146E-01	 4.51499E-03	 2.64663E+01	 2.55662E+00	-1.09623E+00	 9.57322E-01
     0.704	 5.00000E+00	 0.00000E+00	 0.00000E+00	 3.25310E+00	 2.84991E+02	 5.58226E-01	 1.44146E-02	 5.58144E-01	 1.72861E-02	-4.58791E-02	 7.29300E+00	 2.17083E-01	 9.63211E-03	 2.15586E+01	 3.44037E+00	-1.04750E+00	 8.53244E-01	 2.69225E+00	 5.85861E+02	 4.93400E-01	 1.38563E-02	 4.93507E-01	 9.33465E-03	-4.45292E-02	 4.43400E+00	 2.39145E-01	 4.51499E-03	 2.64663E+01	 2.55663E+00	-1.09623E+00	 9.57322E-01
     0.708	 5.00000E+00	 0.00000E+00	 0.00000E+00	 3.25310E+00	 2.84991E+02	 5.58226E-01	 1.44146E-02	 5.58144E-01	 1.72861E-02	-4.58791E-02	 7.29300E+00	 2.17083E-01	 9.63211E-03	 2.15586E+01	 3.44037E+00	-1.04750E+00	 8.53244E-01	 2.69225E+00	 5.85862E+02	 4.93400E-01	 1.38563E-02	 4.93506E-01	 9.33462E-03	-4.45292E-02	 4.43400E+00	 2.39146E-01	 4.51499E-03	 2.64663E+01	 2.55662E+00	-1.09623E+00	 9.57322E-01
     0.712	 5.00000E+00	 0.00000E+00	 0.00000E+00	 3.25310E+00	 2.84991E+02	 5.58226E-01	 1.44146E-02	 5.58144E-01	 1.72862E-02	-4.58791E-02	 7.29300E+00	 2.17083E-01	 9.63211E-03	 2.15586E+01	 3.44037E+00	-1.04750E+00	 8.53244E-01	 2.69225E+00	 5.85862E+02	 4.93400E-01	 1.38563E-02	 4.93506E-01	 9.33464E-03	-4.45292E-02	 4.43400E+00	 2.39145E-01	 4.51499E-03	 2.64663E+01	 2.55663E+00	-1.09623E+00	 9.57322E-01
     0.716	 5.00000E+00	 0.00000E+00	 0.00000E+00	 3.25310E+00	 2.84991E+02	 5.58226E-01	 1.44146E-02	 5.58144E-01	 1.72861E-02	-4.58791E-02	 7.29300E+00	 2.17083E-01	 9.63211E-03	 2.15586E+01	 3.44037E+00	-1.04750E+00	 8.53244E-01	 2.69225E+00	 5.85861E+02	 4.93400E-01	 1.38563E-02	 4.93506E-01	 9.33463E-03	-4.45292E-02	 4.43400E+00	 2.39146E-01	 4.51499E-03	 2.64663E+01	 2.55662E+00	-1.09623E+00	 9.57322E-01
     0.720	 5.00000E+00	 0.00000E+00	 0.00000E+00	 3.25310E+00	 2.84991E+02	 5.58226E-01	 1.44146E-02	 5.58144E-01	 1.72862E-02	-4.58791E-02	 7.29300E+00	 2.17083E-01	 9.63211E-03	 2.15586E+01	 3.44037E+00	-1.04750E+00	 8.53244E-01	 2.69225E+00	 5.85862E+02	 4.93400E-01	 1.38563E-02	 4.93506E-01	 9.33464E-03	-4.45292E-02	 4.43400E+00	 2.39145E-01	 4.51499E-03	 2.64663E+01	 2.55663E+00	-1.09623E+00	 9.57322E-01
     0.724	 5.00000E+00	 0.00000E+00	 0.00000E+00	 3.25310E+00	 2.84991E+02	 5.58226E-01	 1.44146E-02	 5.58144E-01	 1.72861E-02	-4.58791E-02	 7.29300E+00	 2.17083E-01	 9.63211E-03	 2.15586E+01	 3.44037E+00	-1.04750E+00	 8.53244E-01	 2.69225E+00	 5.85862E+02	 4.93400E-01	 1.38563E-02	 4.93506E-01	 9.33463E-03	-4.45292E-02	 4.43400E+00	 2.39145E-01	 4.51499E-03	 2.64663E+01	 2.55662E+00	-1.09623E+00	 9.57322E-01
     0.728	 5.00000E+00	 0.00000E+00	 0.00000E+00	 3.25310E+00	 2.84991E+02	 5.58226E-01	 1.44146E-02	 5.58145E-01	 1.72862E-02	-4.58791E-02	 7.29300E+00	 2.17083E-01	 9.63211E-03	 2.15586E+01	 3.44037E+00	-1.04750E+00	 8.53244E-01	 2.69225E+00	 5.85862E+02	 4.93400E-01	 1.38563E-02	 4.93506E-01	 9.33464E-03	-4.45292E-02	 4.43400E+00	 2.39145E-01	 4.51499E-03	 2.64663E+01	 2.55663E+00	-1.09623E+00	 9.57322E-01
     0.732	 5.00000E+00	 0.00000E+00	 0.00000E+00	 3.25310E+00	 2.84991E+02	 5.58226E-01	 1.44146E-02	 5.58144E-01	 1.72861E-02	-4.58791E-02	 7.29300E+00	 2.17083E-01	 9.63217E-03	 2.15586E+01	 3.44037E+00	-1.04750E+00	 8.53244E-01	 2.69225E+00	 5.85861E+02	 4.93400E-01	 1.38563E-02	 4.93506E-01	 9.33463E-03	-4.45292E-02	 4.43400E+00	 2.39146E-01	 4.51499E-03	 2.64663E+01	 2.55662E+00	-1.09623E+00	 9.57322E-01
     0.736	 5.00000E+00	 0.00000E+00	 0.00000E+00	 3.25310E+00	 2.84991E+02	 5.58226E-01	 1.44146E-02	 5.58145E-01	 1.72862E-02	-4.58791E-02	 7.29300E+00	 2.17083E-01	 9.63211E-03	 2.15587E+01	 3.44038E+00	-1.04750E+00	 8.53244E-01	 2.69225E+00	 5.85861E+02	 4.93400E-01	 1.38563E-02	 4.93507E-01	 9.33465E-03	-4.45292E-02	 4.43400E+00	 2.39145E-01	 4.51499E-03	 2.64663E+01	 2.55663E+00	-1.09623E+00	 9.57322E-01
     0.740	 5.00000E+00	 0.00000E+00	 0.00000E+00	 3.25309E+00	 2.84991E+02	 5.58225E-01	 1.44146E-02	 5.58144E-01	 1.72861E-02	-4.58791E-02	 7.29300E+00	 2.17083E-01	 9.63217E-03	 2.15586E+01	 3.44037E+00	-1.04750E+00	 8.53244E-01	 2.69225E+00	 5.85861E+02	 4.93400E-01	 1.38563E-02	 4.93506E-01	 9.33463E-03	-4.45292E-02	 4.43400E+00	 2.39146E-01	 4.51499E-03	 2.64663E+01	 2.55662E+00	-1.09623E+00	 9.57322E-01
     0.744	 5.00000E+00	 0.00000E+00	 0.00000E+00	 3.25310E+00	 2.84991E+02	 5.58226E-01	 1.44146E-02	 5.58145E-01	 1.72862E-02	-4.58791E-02	 7.29300E+00	 2.17083E-01	 9.63211E-03	 2.15587E+01	 3.44038E+00	-1.04750E+00	 8.53244E-01	 2.69225E+00	 5.85862E+02	 4.93400E-01	 1.38563E-02	 4.93507E-01	 9.33465E-03	-4.45292E-02	 4.43400E+00	 2.39145E-01	 4.51499E-03	 2.64663E+01	 2.55663E+00	-1.09623E+00	 9.57322E-01
     0.748	 5.00000E+00	 0.00000E+00	 0.00000E+00	 3.25309E+00	 2.84991E+02	 5.58225E-01	 1.44146E-02	 5.58144E-01	 1.72861E-02	-4.58791E-02	 7.29300E+00	 2.17083E-01	 9.63211E-03	 2.15586E+01	 3.44037E+00	-1.04750E+00	 8.53244E-01	 2.69225E+00	 5.85861E+02	 4.93400E-01	 1.38563E-02	 4.93506E-01	 9.33463E-03	-4.45292E-02	 4.43400E+00	 2.39146E-01	 4.51499E-03	 2.64663E+01	 2.55662E+00	-1.09623E+00	 9.57322E-01
     0.752	 5.00000E+00	 0.00000E+00	 0.00000E+00	 3.25310E+00	 2.84991E+02	 5.58226E-01	 1.44146E-02	 5.58145E-01	 1.72862E-02	-4.58791E-02	 7.29300E+00	 2.17083E-01	 9.63211E-03	 2.15586E+01	 3.44037E+00	-1.04750E+00	 8.53244E-01	 2.69225E+00	 5.85862E+02	 4.93400E-01	 1.38563E-02	 4.93507E-01	 9.33465E-03	-4.45292E-02	 4.43400E+00	 2.39145E-01	 4.51499E-03	 2.64663E+01	 2.55663E+00	-1.09623E+00	 9.57322E-01
     0.756	 5.00000E+00	 0.00000E+00	 0.00000E+00	 3.25309E+00	 2.84991E+02	 5.58226E-01	 1.44146E-02	 5.58144E-01	 1.72861E-02	-4.58791E-02	 7.29300E+00	 2.17083E-01	 9.63211E-03	 2.15586E+01	 3.44037E+00	-1.04750E+00	 8.53244E-01	 2.69225E+00	 5.85861E+02	 4.93400E-01	 1.38563E-02	 4.93506E-01	 9.33462E-03	-4.45292E-02	 4.43400E+00	 2.39146E-01	 4.51499E-03	 2.64663E+01	 2.55662E+00	-1.09623E+00	 9.57322E-01
     0.760	 5.00000E+00	 0.00000E+00	 0.00000E+00	 3.25310E+00	 2.84991E+02	 5.58226E-01	 1.44146E-02	 5.58145E-01	 1.72862E-02	-4.58791E-02	 7.29300E+00	 2.17083E-01	 9.63211E-03	 2.15586E+01	 3.44037E+00	-1.04750E+00	 8.53244E-01	 2.69225E+00	 5.85861E+02	 4.93400E-01	 1.38563E-02	 4.93507E-01	 9.33465E-03	-4.45292E-02	 4.43400E+00	 2.39145E-01	 4.51499E-03	 2.64663E+01	 2.55663E+00	-1.09623E+00	 9.57322E-01
[...]
    24.812	 2.48120E+01	 0.00000E+00	 0.00000E+00	 4.11766E+01	 6.49030E+02	 1.05812E+00	 8.91252E-01	 1.38321E+00	 2.58135E-02	-2.90822E-01	 7.29300E+00	 2.61802E-02	 2.75523E-02	 1.21866E+02	 1.79133E+01	-1.51217E+01	 1.28763E+00	 3.39290E+01	 9.46140E+02	 7.50354E-01	 5.55368E-01	 9.32578E-01	-4.19849E-02	-2.59809E-01	 4.43400E+00	 2.52069E-02	 8.72576E-03	 8.11702E+01	 2.63068E+00	-1.03293E+01	 1.21657E+00
    24.816	 2.48160E+01	 0.00000E+00	 0.00000E+00	 4.11813E+01	 6.49153E+02	 1.05809E+00	 8.91435E-01	 1.38331E+00	 2.57739E-02	-2.90830E-01	 7.29300E+00	 2.61742E-02	 2.75543E-02	 1.21899E+02	 1.79144E+01	-1.51250E+01	 1.28775E+00	 3.39336E+01	 9.46263E+02	 7.50318E-01	 5.55460E-01	 9.32603E-01	-4.20051E-02	-2.59825E-01	 4.43400E+00	 2.52001E-02	 8.72588E-03	 8.11830E+01	 2.62943E+00	-1.03313E+01	 1.21665E+00
    24.820	 2.48200E+01	 0.00000E+00	 0.00000E+00	 4.11860E+01	 6.49276E+02	 1.05807E+00	 8.91618E-01	 1.38341E+00	 2.57342E-02	-2.90838E-01	 7.29300E+00	 2.61681E-02	 2.75564E-02	 1.21931E+02	 1.79154E+01	-1.51283E+01	 1.28787E+00	 3.39383E+01	 9.46385E+02	 7.50281E-01	 5.55552E-01	 9.32627E-01	-4.20254E-02	-2.59842E-01	 4.43400E+00	 2.51934E-02	 8.72600E-03	 8.11958E+01	 2.62817E+00	-1.03333E+01	 1.21673E+00
    24.824	 2.48240E+01	 0.00000E+00	 0.00000E+00	 4.11907E+01	 6.49399E+02	 1.05805E+00	 8.91801E-01	 1.38351E+00	 2.56945E-02	-2.90846E-01	 7.29300E+00	 2.61621E-02	 2.75583E-02	 1.21964E+02	 1.79164E+01	-1.51315E+01	 1.28799E+00	 3.39430E+01	 9.46508E+02	 7.50244E-01	 5.55644E-01	 9.32651E-01	-4.20456E-02	-2.59858E-01	 4.43400E+00	 2.51866E-02	 8.72612E-03	 8.12085E+01	 2.62692E+00	-1.03353E+01	 1.21681E+00
    24.828	 2.48280E+01	 0.00000E+00	 0.00000E+00	 4.11954E+01	 6.49522E+02	 1.05802E+00	 8.91984E-01	 1.38362E+00	 2.56550E-02	-2.90854E-01	 7.29300E+00	 2.61560E-02	 2.75603E-02	 1.21996E+02	 1.79175E+01	-1.51348E+01	 1.28811E+00	 3.39477E+01	 9.46631E+02	 7.50208E-01	 5.55735E-01	 9.32676E-01	-4.20659E-02	-2.59875E-01	 4.43400E+00	 2.51798E-02	 8.72630E-03	 8.12213E+01	 2.62566E+00	-1.03373E+01	 1.21689E+00
    24.832	 2.48320E+01	 0.00000E+00	 0.00000E+00	 4.12001E+01	 6.49645E+02	 1.05800E+00	 8.92167E-01	 1.38372E+00	 2.56154E-02	-2.90862E-01	 7.29300E+00	 2.61500E-02	 2.75623E-02	 1.22028E+02	 1.79185E+01	-1.51381E+01	 1.28824E+00	 3.39524E+01	 9.46754E+02	 7.50171E-01	 5.55827E-01	 9.32700E-01	-4.20862E-02	-2.59891E-01	 4.43400E+00	 2.51731E-02	 8.72642E-03	 8.12341E+01	 2.62441E+00	-1.03393E+01	 1.21697E+00
    24.836	 2.48360E+01	 0.00000E+00	 0.00000E+00	 4.12048E+01	 6.49768E+02	 1.05798E+00	 8.92350E-01	 1.38382E+00	 2.55759E-02	-2.90870E-01	 7.29300E+00	 2.61440E-02	 2.75643E-02	 1.22061E+02	 1.79195E+01	-1.51414E+01	 1.28836E+00	 3.39571E+01	 9.46877E+02	 7.50135E-01	 5.55919E-01	 9.32725E-01	-4.21065E-02	-2.59908E-01	 4.43400E+00	 2.51663E-02	 8.72660E-03	 8.12469E+01	 2.62315E+00	-1.03413E+01	 1.21705E+00
    24.840	 2.48400E+01	 0.00000E+00	 0.00000E+00	 4.12095E+01	 6.49891E+02	 1.05795E+00	 8.92533E-01	 1.38392E+00	 2.55363E-02	-2.90878E-01	 7.29300E+00	 2.61379E-02	 2.75663E-02	 1.22093E+02	 1.79206E+01	-1.51447E+01	 1.28848E+00	 3.39617E+01	 9.47000E+02	 7.50098E-01	 5.56011E-01	 9.32749E-01	-4.21267E-02	-2.59925E-01	 4.43400E+00	 2.51596E-02	 8.72672E-03	 8.12597E+01	 2.62190E+00	-1.03433E+01	 1.21713E+00
    24.844	 2.48440E+01	 0.00000E+00	 0.00000E+00	 4.12142E+01	 6.50014E+02	 1.05793E+00	 8.92715E-01	 1.38402E+00	 2.54969E-02	-2.90886E-01	 7.29300E+00	 2.61319E-02	 2.75683E-02	 1.22126E+02	 1.79216E+01	-1.51480E+01	 1.28860E+00	 3.39664E+01	 9.47123E+02	 7.50062E-01	 5.56102E-01	 9.32773E-01	-4.21470E-02	-2.59941E-01	 4.43400E+00	 2.51529E-02	 8.72684E-03	 8.12725E+01	 2.62065E+00	-1.03453E+01	 1.21721E+00
    24.848	 2.48480E+01	 0.00000E+00	 0.00000E+00	 4.12189E+01	 6.50137E+02	 1.05791E+00	 8.92898E-01	 1.38412E+00	 2.54573E-02	-2.90894E-01	 7.29300E+00	 2.61258E-02	 2.75703E-02	 1.22158E+02	 1.79226E+01	-1.51512E+01	 1.28872E+00	 3.39711E+01	 9.47246E+02	 7.50025E-01	 5.56194E-01	 9.32798E-01	-4.21672E-02	-2.59958E-01	 4.43400E+00	 2.51461E-02	 8.72701E-03	 8.12853E+01	 2.61939E+00	-1.03473E+01	 1.21728E+00
    24.852	 2.48520E+01	 0.00000E+00	 0.00000E+00	 4.12236E+01	 6.50261E+02	 1.05788E+00	 8.93081E-01	 1.38422E+00	 2.54178E-02	-2.90902E-01	 7.29300E+00	 2.61198E-02	 2.75723E-02	 1.22191E+02	 1.79237E+01	-1.51545E+01	 1.28885E+00	 3.39758E+01	 9.47368E+02	 7.49989E-01	 5.56286E-01	 9.32822E-01	-4.21875E-02	-2.59974E-01	 4.43400E+00	 2.51394E-02	 8.72713E-03	 8.12981E+01	 2.61815E+00	-1.03493E+01	 1.21736E+00
    24.856	 2.48560E+01	 0.00000E+00	 0.00000E+00	 4.12283E+01	 6.50384E+02	 1.05786E+00	 8.93264E-01	 1.38432E+00	 2.53785E-02	-2.90910E-01	 7.29300E+00	 2.61138E-02	 2.75743E-02	 1.22223E+02	 1.79247E+01	-1.51578E+01	 1.28897E+00	 3.39805E+01	 9.47491E+02	 7.49952E-01	 5.56377E-01	 9.32847E-01	-4.22077E-02	-2.59991E-01	 4.43400E+00	 2.51327E-02	 8.72731E-03	 8.13109E+01	 2.61688E+00	-1.03513E+01	 1.21744E+00
    24.860	 2.48600E+01	 0.00000E+00	 0.00000E+00	 4.12330E+01	 6.50507E+02	 1.05784E+00	 8.93446E-01	 1.38442E+00	 2.53391E-02	-2.90918E-01	 7.29300E+00	 2.61078E-02	 2.75763E-02	 1.22256E+02	 1.79258E+01	-1.51611E+01	 1.28909E+00	 3.39851E+01	 9.47614E+02	 7.49916E-01	 5.56469E-01	 9.32871E-01	-4.22279E-02	-2.60007E-01	 4.43400E+00	 2.51259E-02	 8.72743E-03	 8.13237E+01	 2.61564E+00	-1.03533E+01	 1.21752E+00
    24.864	 2.48640E+01	 0.00000E+00	 0.00000E+00	 4.12377E+01	 6.50630E+02	 1.05781E+00	 8.93629E-01	 1.38452E+00	 2.52998E-02	-2.90926E-01	 7.29300E+00	 2.61018E-02	 2.75783E-02	 1.22288E+02	 1.79268E+01	-1.51644E+01	 1.28921E+00	 3.39898E+01	 9.47737E+02	 7.49879E-01	 5.56560E-01	 9.32895E-01	-4.22481E-02	-2.60024E-01	 4.43400E+00	 2.51192E-02	 8.72761E-03	 8.13365E+01	 2.61438E+00	-1.03553E+01	 1.21760E+00
    24.868	 2.48680E+01	 0.00000E+00	 0.00000E+00	 4.12424E+01	 6.50753E+02	 1.05779E+00	 8.93812E-01	 1.38462E+00	 2.52604E-02	-2.90934E-01	 7.29300E+00	 2.60957E-02	 2.75803E-02	 1.22321E+02	 1.79279E+01	-1.51677E+01	 1.28933E+00	 3.39945E+01	 9.47860E+02	 7.49843E-01	 5.56652E-01	 9.32920E-01	-4.22682E-02	-2.60040E-01	 4.43400E+00	 2.51125E-02	 8.72773E-03	 8.13494E+01	 2.61314E+00	-1.03573E+01	 1.21768E+00
    24.872	 2.48720E+01	 0.00000E+00	 0.00000E+00	 4.12470E+01	 6.50876E+02	 1.05776E+00	 8.93994E-01	 1.38472E+00	 2.52210E-02	-2.90942E-01	 7.29300E+00	 2.60897E-02	 2.75823E-02	 1.22353E+02	 1.79289E+01	-1.51710E+01	 1.28946E+00	 3.39992E+01	 9.47983E+02	 7.49807E-01	 5.56744E-01	 9.32944E-01	-4.22885E-02	-2.60057E-01	 4.43400E+00	 2.51057E-02	 8.72785E-03	 8.13622E+01	 2.61188E+00	-1.03593E+01	 1.21776E+00
    24.876	 2.48760E+01	 0.00000E+00	 0.00000E+00	 4.12517E+01	 6.50999E+02	 1.05774E+00	 8.94177E-01	 1.38482E+00	 2.51816E-02	-2.90950E-01	 7.29300E+00	 2.60837E-02	 2.75843E-02	 1.22386E+02	 1.79300E+01	-1.51743E+01	 1.28958E+00	 3.40038E+01	 9.48106E+02	 7.49770E-01	 5.56835E-01	 9.32969E-01	-4.23086E-02	-2.60074E-01	 4.43400E+00	 2.50990E-02	 8.72797E-03	 8.13750E+01	 2.61063E+00	-1.03613E+01	 1.21784E+00
    24.880	 2.48800E+01	 0.00000E+00	 0.00000E+00	 4.12564E+01	 6.51123E+02	 1.05772E+00	 8.94359E-01	 1.38492E+00	 2.51424E-02	-2.90958E-01	 7.29300E+00	 2.60777E-02	 2.75863E-02	 1.22418E+02	 1.79310E+01	-1.51776E+01	 1.28970E+00	 3.40085E+01	 9.48229E+02	 7.49734E-01	 5.56927E-01	 9.32993E-01	-4.23288E-02	-2.60090E-01	 4.43400E+00	 2.50923E-02	 8.72815E-03	 8.13878E+01	 2.60938E+00	-1.03633E+01	 1.21792E+00
    24.884	 2.48840E+01	 0.00000E+00	 0.00000E+00	 4.12611E+01	 6.51246E+02	 1.05769E+00	 8.94542E-01	 1.38502E+00	 2.51032E-02	-2.90966E-01	 7.29300E+00	 2.60717E-02	 2.75883E-02	 1.22451E+02	 1.79321E+01	-1.51809E+01	 1.28982E+00	 3.40132E+01	 9.48352E+02	 7.49697E-01	 5.57018E-01	 9.33018E-01	-4.23491E-02	-2.60107E-01	 4.43400E+00	 2.50856E-02	 8.72827E-03	 8.14006E+01	 2.60813E+00	-1.03653E+01	 1.21800E+00
    24.888	 2.48880E+01	 0.00000E+00	 0.00000E+00	 4.12658E+01	 6.51369E+02	 1.05767E+00	 8.94724E-01	 1.38512E+00	 2.50639E-02	-2.90974E-01	 7.29300E+00	 2.60657E-02	 2.75903E-02	 1.22483E+02	 1.79332E+01	-1.51841E+01	 1.28994E+00	 3.40179E+01	 9.48476E+02	 7.49661E-01	 5.57110E-01	 9.33042E-01	-4.23692E-02	-2.60123E-01	 4.43400E+00	 2.50789E-02	 8.72844E-03	 8.14135E+01	 2.60688E+00	-1.03673E+01	 1.21807E+00
    24.892	 2.48920E+01	 0.00000E+00	 0.00000E+00	 4.12705E+01	 6.51493E+02	 1.05765E+00	 8.94907E-01	 1.38523E+00	 2.50247E-02	-2.90982E-01	 7.29300E+00	 2.60597E-02	 2.75922E-02	 1.22516E+02	 1.79342E+01	-1.51874E+01	 1.29007E+00	 3.40225E+01	 9.48599E+02	 7.49624E-01	 5.57201E-01	 9.33066E-01	-4.23894E-02	-2.60140E-01	 4.43400E+00	 2.50722E-02	 8.72856E-03	 8.14263E+01	 2.60563E+00	-1.03693E+01	 1.21815E+00
    24.896	 2.48960E+01	 0.00000E+00	 0.00000E+00	 4.12752E+01	 6.51616E+02	 1.05762E+00	 8.95089E-01	 1.38533E+00	 2.49855E-02	-2.90990E-01	 7.29300E+00	 2.60537E-02	 2.75943E-02	 1.22549E+02	 1.79353E+01	-1.51907E+01	 1.29019E+00	 3.40272E+01	 9.48722E+02	 7.49588E-01	 5.57293E-01	 9.33091E-01	-4.24096E-02	-2.60156E-01	 4.43400E+00	 2.50655E-02	 8.72868E-03	 8.14391E+01	 2.60438E+00	-1.03713E+01	 1.21823E+00
    24.900	 2.49000E+01	 0.00000E+00	 0.00000E+00	 4.12799E+01	 6.51739E+02	 1.05760E+00	 8.95271E-01	 1.38543E+00	 2.49463E-02	-2.90998E-01	 7.29300E+00	 2.60477E-02	 2.75963E-02	 1.22581E+02	 1.79363E+01	-1.51940E+01	 1.29031E+00	 3.40319E+01	 9.48845E+02	 7.49551E-01	 5.57384E-01	 9.33115E-01	-4.24296E-02	-2.60173E-01	 4.43400E+00	 2.50587E-02	 8.72886E-03	 8.14520E+01	 2.60313E+00	-1.03733E+01	 1.21831E+00
    24.904	 2.49040E+01	 0.00000E+00	 0.00000E+00	 4.12846E+01	 6.51862E+02	 1.05758E+00	 8.95454E-01	 1.38553E+00	 2.49072E-02	-2.91006E-01	 7.29300E+00	 2.60417E-02	 2.75983E-02	 1.22614E+02	 1.79374E+01	-1.51973E+01	 1.29043E+00	 3.40365E+01	 9.48968E+02	 7.49515E-01	 5.57476E-01	 9.33140E-01	-4.24498E-02	-2.60189E-01	 4.43400E+00	 2.50520E-02	 8.72898E-03	 8.14648E+01	 2.60188E+00	-1.03753E+01	 1.21839E+00
    24.908	 2.49080E+01	 0.00000E+00	 0.00000E+00	 4.12892E+01	 6.51986E+02	 1.05755E+00	 8.95636E-01	 1.38563E+00	 2.48680E-02	-2.91014E-01	 7.29300E+00	 2.60357E-02	 2.76003E-02	 1.22646E+02	 1.79385E+01	-1.52006E+01	 1.29055E+00	 3.40412E+01	 9.49092E+02	 7.49479E-01	 5.57567E-01	 9.33164E-01	-4.24700E-02	-2.60206E-01	 4.43400E+00	 2.50454E-02	 8.72916E-03	 8.14777E+01	 2.60063E+00	-1.03773E+01	 1.21847E+00
    24.912	 2.49120E+01	 0.00000E+00	 0.00000E+00	 4.12939E+01	 6.52109E+02	 1.05753E+00	 8.95818E-01	 1.38573E+00	 2.48291E-02	-2.91022E-01	 7.29300E+00	 2.60297E-02	 2.76023E-02	 1.22679E+02	 1.79395E+01	-1.52039E+01	 1.29068E+00	 3.40459E+01	 9.49215E+02	 7.49442E-01	 5.57659E-01	 9.33189E-01	-4.24901E-02	-2.60222E-01	 4.43400E+00	 2.50387E-02	 8.72928E-03	 8.14905E+01	 2.59938E+00	-1.03793E+01	 1.21855E+00
    24.916	 2.49160E+01	 0.00000E+00	 0.00000E+00	 4.12986E+01	 6.52233E+02	 1.05751E+00	 8.96000E-01	 1.38583E+00	 2.47899E-02	-2.91030E-01	 7.29300E+00	 2.60237E-02	 2.76043E-02	 1.22711E+02	 1.79406E+01	-1.52072E+01	 1.29080E+00	 3.40505E+01	 9.49338E+02	 7.49406E-01	 5.57750E-01	 9.33213E-01	-4.25102E-02	-2.60239E-01	 4.43400E+00	 2.50320E-02	 8.72946E-03	 8.15033E+01	 2.59813E+00	-1.03813E+01	 1.21863E+00
    24.920	 2.49200E+01	 0.00000E+00	 0.00000E+00	 4.13033E+01	 6.52356E+02	 1.05748E+00	 8.96182E-01	 1.38593E+00	 2.47508E-02	-2.91038E-01	 7.29300E+00	 2.60178E-02	 2.76062E-02	 1.22744E+02	 1.79417E+01	-1.52105E+01	 1.29092E+00	 3.40552E+01	 9.49461E+02	 7.49369E-01	 5.57842E-01	 9.33238E-01	-4.25304E-02	-2.60255E-01	 4.43400E+00	 2.50253E-02	 8.72952E-03	 8.15162E+01	 2.59688E+00	-1.03833E+01	 1.21871E+00
    24.924	 2.49240E+01	 0.00000E+00	 0.00000E+00	 4.13080E+01	 6.52479E+02	 1.05746E+00	 8.96365E-01	 1.38603E+00	 2.47119E-02	-2.91046E-01	 7.29300E+00	 2.60118E-02	 2.76083E-02	 1.22777E+02	 1.79428E+01	-1.52138E+01	 1.29104E+00	 3.40599E+01	 9.49584E+02	 7.49333E-01	 5.57933E-01	 9.33262E-01	-4.25505E-02	-2.60272E-01	 4.43400E+00	 2.50186E-02	 8.72970E-03	 8.15291E+01	 2.59563E+00	-1.03854E+01	 1.21879E+00
    24.928	 2.49280E+01	 0.00000E+00	 0.00000E+00	 4.13126E+01	 6.52603E+02	 1.05744E+00	 8.96546E-01	 1.38613E+00	 2.46729E-02	-2.91054E-01	 7.29300E+00	 2.60058E-02	 2.76103E-02	 1.22809E+02	 1.79438E+01	-1.52171E+01	 1.29117E+00	 3.40645E+01	 9.49708E+02	 7.49296E-01	 5.58025E-01	 9.33287E-01	-4.25706E-02	-2.60289E-01	 4.43400E+00	 2.50119E-02	 8.72982E-03	 8.15419E+01	 2.59438E+00	-1.03874E+01	 1.21887E+00
    24.932	 2.49320E+01	 0.00000E+00	 0.00000E+00	 4.13173E+01	 6.52727E+02	 1.05741E+00	 8.96729E-01	 1.38623E+00	 2.46339E-02	-2.91062E-01	 7.29300E+00	 2.59998E-02	 2.76123E-02	 1.22842E+02	 1.79449E+01	-1.52204E+01	 1.29129E+00	 3.40692E+01	 9.49831E+02	 7.49260E-01	 5.58116E-01	 9.33311E-01	-4.25907E-02	-2.60305E-01	 4.43400E+00	 2.50052E-02	 8.72999E-03	 8.15548E+01	 2.59314E+00	-1.03894E+01	 1.21894E+00
    24.936	 2.49360E+01	 0.00000E+00	 0.00000E+00	 4.13220E+01	 6.52850E+02	 1.05739E+00	 8.96910E-01	 1.38633E+00	 2.45950E-02	-2.91070E-01	 7.29300E+00	 2.59939E-02	 2.76143E-02	 1.22874E+02	 1.79460E+01	-1.52237E+01	 1.29141E+00	 3.40739E+01	 9.49954E+02	 7.49224E-01	 5.58207E-01	 9.33336E-01	-4.26108E-02	-2.60322E-01	 4.43400E+00	 2.49986E-02	 8.73011E-03	 8.15676E+01	 2.59190E+00	-1.03914E+01	 1.21902E+00
    24.940	 2.49400E+01	 0.00000E+00	 0.00000E+00	 4.13267E+01	 6.52973E+02	 1.05737E+00	 8.97093E-01	 1.38643E+00	 2.45559E-02	-2.91078E-01	 7.29300E+00	 2.59879E-02	 2.76163E-02	 1.22907E+02	 1.79471E+01	-1.52270E+01	 1.29153E+00	 3.40785E+01	 9.50078E+02	 7.49187E-01	 5.58299E-01	 9.33360E-01	-4.26309E-02	-2.60338E-01	 4.43400E+00	 2.49919E-02	 8.73029E-03	 8.15805E+01	 2.59065E+00	-1.03934E+01	 1.21910E+00
    24.944	 2.49440E+01	 0.00000E+00	 0.00000E+00	 4.13314E+01	 6.53097E+02	 1.05734E+00	 8.97275E-01	 1.38653E+00	 2.45171E-02	-2.91086E-01	 7.29300E+00	 2.59819E-02	 2.76183E-02	 1.22940E+02	 1.79482E+01	-1.52303E+01	 1.29165E+00	 3.40832E+01	 9.50201E+02	 7.49151E-01	 5.58390E-01	 9.33385E-01	-4.26510E-02	-2.60355E-01	 4.43400E+00	 2.49852E-02	 8.73041E-03	 8.15934E+01	 2.58939E+00	-1.03954E+01	 1.21918E+00
    24.948	 2.49480E+01	 0.00000E+00	 0.00000E+00	 4.13360E+01	 6.53221E+02	 1.05732E+00	 8.97456E-01	 1.38663E+00	 2.44783E-02	-2.91094E-01	 7.29300E+00	 2.59759E-02	 2.76203E-02	 1.22972E+02	 1.79492E+01	-1.52336E+01	 1.29178E+00	 3.40879E+01	 9.50324E+02	 7.49115E-01	 5.58481E-01	 9.33410E-01	-4.26710E-02	-2.60371E-01	 4.43400E+00	 2.49785E-02	 8.73059E-03	 8.16062E+01	 2.58815E+00	-1.03974E+01	 1.21926E+00
    24.952	 2.49520E+01	 0.00000E+00	 0.00000E+00	 4.13407E+01	 6.53344E+02	 1.05730E+00	 8.97638E-01	 1.38673E+00	 2.44395E-02	-2.91102E-01	 7.29300E+00	 2.59700E-02	 2.76223E-02	 1.23005E+02	 1.79503E+01	-1.52369E+01	 1.29190E+00	 3.40925E+01	 9.50448E+02	 7.49078E-01	 5.58573E-01	 9.33434E-01	-4.26911E-02	-2.60388E-01	 4.43400E+00	 2.49719E-02	 8.73071E-03	 8.16191E+01	 2.58691E+00	-1.03994E+01	 1.21934E+00
    24.956	 2.49560E+01	 0.00000E+00	 0.00000E+00	 4.13454E+01	 6.53468E+02	 1.05727E+00	 8.97820E-01	 1.38684E+00	 2.44006E-02	-2.91110E-01	 7.29300E+00	 2.59640E-02	 2.76243E-02	 1.23038E+02	 1.79514E+01	-1.52402E+01	 1.29202E+00	 3.40972E+01	 9.50571E+02	 7.49042E-01	 5.58664E-01	 9.33459E-01	-4.27111E-02	-2.60404E-01	 4.43400E+00	 2.49652E-02	 8.73083E-03	 8.16320E+01	 2.58566E+00	-1.04014E+01	 1.21942E+00
    24.960	 2.49600E+01	 0.00000E+00	 0.00000E+00	 4.13501E+01	 6.53592E+02	 1.05725E+00	 8.98002E-01	 1.38694E+00	 2.43618E-02	-2.91118E-01	 7.29300E+00	 2.59581E-02	 2.76263E-02	 1.23070E+02	 1.79525E+01	-1.52435E+01	 1.29214E+00	 3.41019E+01	 9.50695E+02	 7.49005E-01	 5.58756E-01	 9.33483E-01	-4.27313E-02	-2.60421E-01	 4.43400E+00	 2.49586E-02	 8.73101E-03	 8.16449E+01	 2.58441E+00	-1.04034E+01	 1.21950E+00
    24.964	 2.49640E+01	 0.00000E+00	 0.00000E+00	 4.13547E+01	 6.53715E+02	 1.05723E+00	 8.98184E-01	 1.38704E+00	 2.43229E-02	-2.91126E-01	 7.29300E+00	 2.59521E-02	 2.76283E-02	 1.23103E+02	 1.79536E+01	-1.52468E+01	 1.29227E+00	 3.41065E+01	 9.50818E+02	 7.48969E-01	 5.58847E-01	 9.33508E-01	-4.27513E-02	-2.60437E-01	 4.43400E+00	 2.49519E-02	 8.73113E-03	 8.16577E+01	 2.58316E+00	-1.04054E+01	 1.21958E+00
    24.968	 2.49680E+01	 0.00000E+00	 0.00000E+00	 4.13594E+01	 6.53839E+02	 1.05720E+00	 8.98366E-01	 1.38714E+00	 2.42842E-02	-2.91134E-01	 7.29300E+00	 2.59461E-02	 2.76303E-02	 1.23136E+02	 1.79547E+01	-1.52501E+01	 1.29239E+00	 3.41112E+01	 9.50942E+02	 7.48933E-01	 5.58938E-01	 9.33532E-01	-4.27713E-02	-2.60454E-01	 4.43400E+00	 2.49453E-02	 8.73125E-03	 8.16706E+01	 2.58192E+00	-1.04075E+01	 1.21966E+00
    24.972	 2.49720E+01	 0.00000E+00	 0.00000E+00	 4.13641E+01	 6.53962E+02	 1.05718E+00	 8.98547E-01	 1.38724E+00	 2.42456E-02	-2.91142E-01	 7.29300E+00	 2.59402E-02	 2.76323E-02	 1.23168E+02	 1.79558E+01	-1.52534E+01	 1.29251E+00	 3.41158E+01	 9.51065E+02	 7.48896E-01	 5.59029E-01	 9.33557E-01	-4.27913E-02	-2.60470E-01	 4.43400E+00	 2.49386E-02	 8.73142E-03	 8.16835E+01	 2.58067E+00	-1.04095E+01	 1.21974E+00
    24.976	 2.49760E+01	 0.00000E+00	 0.00000E+00	 4.13687E+01	 6.54086E+02	 1.05716E+00	 8.98729E-01	 1.38734E+00	 2.42068E-02	-2.91150E-01	 7.29300E+00	 2.59342E-02	 2.76343E-02	 1.23201E+02	 1.79569E+01	-1.52567E+01	 1.29263E+00	 3.41205E+01	 9.51189E+02	 7.48860E-01	 5.59121E-01	 9.33581E-01	-4.28114E-02	-2.60487E-01	 4.43400E+00	 2.49320E-02	 8.73154E-03	 8.16964E+01	 2.57943E+00	-1.04115E+01	 1.21982E+00
    24.980	 2.49800E+01	 0.00000E+00	 0.00000E+00	 4.13734E+01	 6.54210E+02	 1.05713E+00	 8.98910E-01	 1.38744E+00	 2.41682E-02	-2.91158E-01	 7.29300E+00	 2.59283E-02	 2.76363E-02	 1.23234E+02	 1.79580E+01	-1.52600E+01	 1.29275E+00	 3.41252E+01	 9.51312E+02	 7.48824E-01	 5.59212E-01	 9.33606E-01	-4.28314E-02	-2.60503E-01	 4.43400E+00	 2.49253E-02	 8.73172E-03	 8.17093E+01	 2.57819E+00	-1.04135E+01	 1.21989E+00
    24.984	 2.49840E+01	 0.00000E+00	 0.00000E+00	 4.13781E+01	 6.54334E+02	 1.05711E+00	 8.99092E-01	 1.38754E+00	 2.41295E-02	-2.91166E-01	 7.29300E+00	 2.59224E-02	 2.76383E-02	 1.23266E+02	 1.79591E+01	-1.52633E+01	 1.29288E+00	 3.41298E+01	 9.51436E+02	 7.48787E-01	 5.59303E-01	 9.33631E-01	-4.28514E-02	-2.60520E-01	 4.43400E+00	 2.49187E-02	 8.73184E-03	 8.17222E+01	 2.57694E+00	-1.04155E+01	 1.21997E+00
    24.988	 2.49880E+01	 0.00000E+00	 0.00000E+00	 4.13827E+01	 6.54458E+02	 1.05709E+00	 8.99274E-01	 1.38764E+00	 2.40909E-02	-2.91174E-01	 7.29300E+00	 2.59164E-02	 2.76403E-02	 1.23299E+02	 1.79602E+01	-1.52666E+01	 1.29300E+00	 3.41345E+01	 9.51560E+02	 7.48751E-01	 5.59394E-01	 9.33655E-01	-4.28714E-02	-2.60536E-01	 4.43400E+00	 2.49121E-02	 8.73202E-03	 8.17351E+01	 2.57570E+00	-1.04175E+01	 1.22005E+00
    24.992	 2.49920E+01	 0.00000E+00	 0.00000E+00	 4.13874E+01	 6.54581E+02	 1.05706E+00	 8.99455E-01	 1.38774E+00	 2.40523E-02	-2.91182E-01	 7.29300E+00	 2.59105E-02	 2.76424E-02	 1.23332E+02	 1.79613E+01	-1.52699E+01	 1.29312E+00	 3.41391E+01	 9.51683E+02	 7.48715E-01	 5.59486E-01	 9.33680E-01	-4.28914E-02	-2.60553E-01	 4.43400E+00	 2.49054E-02	 8.73214E-03	 8.17480E+01	 2.57445E+00	-1.04195E+01	 1.22013E+00
    24.996	 2.49960E+01	 0.00000E+00	 0.00000E+00	 4.13921E+01	 6.54705E+02	 1.05704E+00	 8.99636E-01	 1.38784E+00	 2.40137E-02	-2.91190E-01	 7.29300E+00	 2.59046E-02	 2.76443E-02	 1.23365E+02	 1.79624E+01	-1.52732E+01	 1.29324E+00	 3.41438E+01	 9.51807E+02	 7.48678E-01	 5.59577E-01	 9.33705E-01	-4.29114E-02	-2.60569E-01	 4.43400E+00	 2.48988E-02	 8.73226E-03	 8.17609E+01	 2.57320E+00	-1.04215E+01	 1.22021E+00
    25.000	 2.50000E+01	 0.00000E+00	 0.00000E+00	 4.13967E+01	 6.54829E+02	 1.05702E+00	 8.99818E-01	 1.38794E+00	 2.39752E-02	-2.91198E-01	 7.29300E+00	 2.58986E-02	 2.76463E-02	 1.23397E+02	 1.79635E+01	-1.52765E+01	 1.29337E+00	 3.41484E+01	 9.51930E+02	 7.48642E-01	 5.59668E-01	 9.33729E-01	-4.29315E-02	-2.60585E-01	 4.43400E+00	 2.48922E-02	 8.73244E-03	 8.17738E+01	 2.57196E+00	-1.04236E+01	 1.22029E+00
